<routes>
        <vType id="vtype0" accel="0.8" decel="4.5" sigma="0.5" length="5" minGap="2.5" maxSpeed="16.67" guiShape="passenger"/>
        <vType id="vtype1" accel="0.8" decel="4.5" sigma="0.5" length="5" minGap="2.5" maxSpeed="16.67" guiShape="passenger"/>
        <route id="r1to2" edges="1to2 " />
        <route id="r1to3" edges="1to3 " />
        <route id="r1to4" edges="1to4 " />
        <route id="r1to5" edges="1to4 4to5 " />
        <route id="r1to6" edges="1to4 4to6 " />
        <route id="r1to7" edges="1to4 4to7 " />
        <route id="r1to8" edges="1to4 4to7 7to8 " />
        <route id="r1to9" edges="1to4 4to7 7to9 " />
        <route id="r1to10" edges="1to4 4to7 7to10 " />
        <route id="r2to3" edges="2to3 " />
        <route id="r2to4" edges="2to4 " />
        <route id="r2to5" edges="2to5 " />
        <route id="r2to6" edges="2to5 5to6 " />
        <route id="r2to7" edges="2to5 5to7 " />
        <route id="r2to8" edges="2to5 5to8 " />
        <route id="r2to9" edges="2to5 5to8 8to9 " />
        <route id="r2to10" edges="2to5 5to8 8to10 " />
        <route id="r3to4" edges="3to4 " />
        <route id="r3to5" edges="3to5 " />
        <route id="r3to6" edges="3to6 " />
        <route id="r3to7" edges="3to6 6to7 " />
        <route id="r3to8" edges="3to6 6to8 " />
        <route id="r3to9" edges="3to6 6to9 " />
        <route id="r3to10" edges="3to6 6to9 9to10 " />
        <route id="r4to5" edges="4to5 " />
        <route id="r4to6" edges="4to6 " />
        <route id="r4to7" edges="4to7 " />
        <route id="r4to8" edges="4to7 7to8 " />
        <route id="r4to9" edges="4to7 7to9 " />
        <route id="r4to10" edges="4to7 7to10 " />
        <route id="r5to6" edges="5to6 " />
        <route id="r5to7" edges="5to7 " />
        <route id="r5to8" edges="5to8 " />
        <route id="r5to9" edges="5to8 8to9 " />
        <route id="r5to10" edges="5to8 8to10 " />
        <route id="r6to7" edges="6to7 " />
        <route id="r6to8" edges="6to8 " />
        <route id="r6to9" edges="6to9 " />
        <route id="r6to10" edges="6to9 9to10 " />
        <route id="r7to8" edges="7to8 " />
        <route id="r7to9" edges="7to9 " />
        <route id="r7to10" edges="7to10 " />
        <route id="r8to9" edges="8to9 " />
        <route id="r8to10" edges="8to10 " />
        <route id="r9to10" edges="9to10 " />
    <vehicle id="vid_0" type="vtype1" route="r2to8" depart="0" />
    <vehicle id="vid_1" type="vtype1" route="r1to8" depart="1" />
    <vehicle id="vid_2" type="vtype1" route="r3to10" depart="2" />
    <vehicle id="vid_3" type="vtype1" route="r3to8" depart="3" />
    <vehicle id="vid_4" type="vtype1" route="r2to8" depart="4" />
    <vehicle id="vid_5" type="vtype1" route="r1to9" depart="5" />
    <vehicle id="vid_6" type="vtype1" route="r1to8" depart="6" />
    <vehicle id="vid_7" type="vtype1" route="r2to9" depart="7" />
    <vehicle id="vid_8" type="vtype1" route="r1to9" depart="8" />
    <vehicle id="vid_9" type="vtype1" route="r3to8" depart="9" />
    <vehicle id="vid_10" type="vtype1" route="r3to10" depart="10" />
    <vehicle id="vid_11" type="vtype1" route="r2to8" depart="11" />
    <vehicle id="vid_12" type="vtype1" route="r3to9" depart="12" />
    <vehicle id="vid_13" type="vtype1" route="r1to8" depart="13" />
    <vehicle id="vid_14" type="vtype1" route="r3to9" depart="14" />
    <vehicle id="vid_15" type="vtype1" route="r3to10" depart="15" />
    <vehicle id="vid_16" type="vtype1" route="r2to10" depart="16" />
    <vehicle id="vid_17" type="vtype1" route="r2to9" depart="17" />
    <vehicle id="vid_18" type="vtype1" route="r3to9" depart="18" />
    <vehicle id="vid_19" type="vtype1" route="r3to9" depart="19" />
    <vehicle id="vid_20" type="vtype1" route="r3to8" depart="20" />
    <vehicle id="vid_21" type="vtype1" route="r1to8" depart="21" />
    <vehicle id="vid_22" type="vtype1" route="r1to8" depart="22" />
    <vehicle id="vid_23" type="vtype1" route="r1to8" depart="23" />
    <vehicle id="vid_24" type="vtype1" route="r2to9" depart="24" />
    <vehicle id="vid_25" type="vtype1" route="r2to8" depart="25" />
    <vehicle id="vid_26" type="vtype1" route="r1to10" depart="26" />
    <vehicle id="vid_27" type="vtype1" route="r2to9" depart="27" />
    <vehicle id="vid_28" type="vtype1" route="r1to10" depart="28" />
    <vehicle id="vid_29" type="vtype1" route="r1to9" depart="29" />
    <vehicle id="vid_30" type="vtype1" route="r3to9" depart="30" />
    <vehicle id="vid_31" type="vtype1" route="r2to10" depart="31" />
    <vehicle id="vid_32" type="vtype1" route="r3to10" depart="32" />
    <vehicle id="vid_33" type="vtype1" route="r1to8" depart="33" />
    <vehicle id="vid_34" type="vtype1" route="r1to8" depart="34" />
    <vehicle id="vid_35" type="vtype1" route="r1to10" depart="35" />
    <vehicle id="vid_36" type="vtype1" route="r3to8" depart="36" />
    <vehicle id="vid_37" type="vtype1" route="r2to9" depart="37" />
    <vehicle id="vid_38" type="vtype1" route="r3to9" depart="38" />
    <vehicle id="vid_39" type="vtype1" route="r1to8" depart="39" />
    <vehicle id="vid_40" type="vtype1" route="r2to8" depart="40" />
    <vehicle id="vid_41" type="vtype1" route="r2to10" depart="41" />
    <vehicle id="vid_42" type="vtype1" route="r2to8" depart="42" />
    <vehicle id="vid_43" type="vtype1" route="r3to9" depart="43" />
    <vehicle id="vid_44" type="vtype1" route="r1to8" depart="44" />
    <vehicle id="vid_45" type="vtype1" route="r1to9" depart="45" />
    <vehicle id="vid_46" type="vtype1" route="r3to9" depart="46" />
    <vehicle id="vid_47" type="vtype1" route="r1to9" depart="47" />
    <vehicle id="vid_48" type="vtype1" route="r3to9" depart="48" />
    <vehicle id="vid_49" type="vtype1" route="r3to10" depart="49" />
    <vehicle id="vid_50" type="vtype1" route="r1to10" depart="50" />
    <vehicle id="vid_51" type="vtype1" route="r3to9" depart="51" />
    <vehicle id="vid_52" type="vtype1" route="r1to9" depart="52" />
    <vehicle id="vid_53" type="vtype1" route="r1to9" depart="53" />
    <vehicle id="vid_54" type="vtype1" route="r2to10" depart="54" />
    <vehicle id="vid_55" type="vtype1" route="r3to8" depart="55" />
    <vehicle id="vid_56" type="vtype1" route="r2to8" depart="56" />
    <vehicle id="vid_57" type="vtype1" route="r3to10" depart="57" />
    <vehicle id="vid_58" type="vtype1" route="r1to9" depart="58" />
    <vehicle id="vid_59" type="vtype1" route="r2to8" depart="59" />
    <vehicle id="vid_60" type="vtype1" route="r3to9" depart="60" />
    <vehicle id="vid_61" type="vtype1" route="r3to9" depart="61" />
    <vehicle id="vid_62" type="vtype1" route="r1to8" depart="62" />
    <vehicle id="vid_63" type="vtype1" route="r1to10" depart="63" />
    <vehicle id="vid_64" type="vtype1" route="r3to10" depart="64" />
    <vehicle id="vid_65" type="vtype1" route="r1to8" depart="65" />
    <vehicle id="vid_66" type="vtype1" route="r3to10" depart="66" />
    <vehicle id="vid_67" type="vtype1" route="r1to9" depart="67" />
    <vehicle id="vid_68" type="vtype1" route="r1to10" depart="68" />
    <vehicle id="vid_69" type="vtype1" route="r3to8" depart="69" />
    <vehicle id="vid_70" type="vtype1" route="r2to9" depart="70" />
    <vehicle id="vid_71" type="vtype1" route="r1to10" depart="71" />
    <vehicle id="vid_72" type="vtype1" route="r2to8" depart="72" />
    <vehicle id="vid_73" type="vtype1" route="r2to10" depart="73" />
    <vehicle id="vid_74" type="vtype1" route="r1to8" depart="74" />
    <vehicle id="vid_75" type="vtype1" route="r3to9" depart="75" />
    <vehicle id="vid_76" type="vtype1" route="r2to9" depart="76" />
    <vehicle id="vid_77" type="vtype1" route="r1to8" depart="77" />
    <vehicle id="vid_78" type="vtype1" route="r2to9" depart="78" />
    <vehicle id="vid_79" type="vtype1" route="r1to8" depart="79" />
    <vehicle id="vid_80" type="vtype1" route="r1to9" depart="80" />
    <vehicle id="vid_81" type="vtype1" route="r1to10" depart="81" />
    <vehicle id="vid_82" type="vtype1" route="r3to8" depart="82" />
    <vehicle id="vid_83" type="vtype1" route="r1to10" depart="83" />
    <vehicle id="vid_84" type="vtype1" route="r1to8" depart="84" />
    <vehicle id="vid_85" type="vtype1" route="r3to9" depart="85" />
    <vehicle id="vid_86" type="vtype1" route="r2to10" depart="86" />
    <vehicle id="vid_87" type="vtype1" route="r3to8" depart="87" />
    <vehicle id="vid_88" type="vtype1" route="r1to9" depart="88" />
    <vehicle id="vid_89" type="vtype1" route="r2to9" depart="89" />
    <vehicle id="vid_90" type="vtype1" route="r3to10" depart="90" />
    <vehicle id="vid_91" type="vtype1" route="r3to8" depart="91" />
    <vehicle id="vid_92" type="vtype1" route="r2to9" depart="92" />
    <vehicle id="vid_93" type="vtype1" route="r3to8" depart="93" />
    <vehicle id="vid_94" type="vtype1" route="r1to9" depart="94" />
    <vehicle id="vid_95" type="vtype1" route="r2to8" depart="95" />
    <vehicle id="vid_96" type="vtype1" route="r1to10" depart="96" />
    <vehicle id="vid_97" type="vtype1" route="r2to10" depart="97" />
    <vehicle id="vid_98" type="vtype1" route="r2to8" depart="98" />
    <vehicle id="vid_99" type="vtype1" route="r3to10" depart="99" />
    <vehicle id="vid_100" type="vtype1" route="r3to10" depart="100" />
    <vehicle id="vid_101" type="vtype1" route="r3to8" depart="101" />
    <vehicle id="vid_102" type="vtype1" route="r2to8" depart="102" />
    <vehicle id="vid_103" type="vtype1" route="r2to8" depart="103" />
    <vehicle id="vid_104" type="vtype1" route="r2to10" depart="104" />
    <vehicle id="vid_105" type="vtype1" route="r1to10" depart="105" />
    <vehicle id="vid_106" type="vtype1" route="r2to9" depart="106" />
    <vehicle id="vid_107" type="vtype1" route="r3to10" depart="107" />
    <vehicle id="vid_108" type="vtype1" route="r2to10" depart="108" />
    <vehicle id="vid_109" type="vtype1" route="r1to8" depart="109" />
    <vehicle id="vid_110" type="vtype1" route="r3to9" depart="110" />
    <vehicle id="vid_111" type="vtype1" route="r2to10" depart="111" />
    <vehicle id="vid_112" type="vtype1" route="r1to9" depart="112" />
    <vehicle id="vid_113" type="vtype1" route="r2to10" depart="113" />
    <vehicle id="vid_114" type="vtype1" route="r1to10" depart="114" />
    <vehicle id="vid_115" type="vtype1" route="r1to8" depart="115" />
    <vehicle id="vid_116" type="vtype1" route="r2to10" depart="116" />
    <vehicle id="vid_117" type="vtype1" route="r1to8" depart="117" />
    <vehicle id="vid_118" type="vtype1" route="r3to8" depart="118" />
    <vehicle id="vid_119" type="vtype1" route="r2to9" depart="119" />
    <vehicle id="vid_120" type="vtype1" route="r2to9" depart="120" />
    <vehicle id="vid_121" type="vtype1" route="r2to10" depart="121" />
    <vehicle id="vid_122" type="vtype1" route="r1to10" depart="122" />
    <vehicle id="vid_123" type="vtype1" route="r1to9" depart="123" />
    <vehicle id="vid_124" type="vtype1" route="r3to8" depart="124" />
    <vehicle id="vid_125" type="vtype1" route="r1to10" depart="125" />
    <vehicle id="vid_126" type="vtype1" route="r1to9" depart="126" />
    <vehicle id="vid_127" type="vtype1" route="r3to10" depart="127" />
    <vehicle id="vid_128" type="vtype1" route="r1to8" depart="128" />
    <vehicle id="vid_129" type="vtype1" route="r1to10" depart="129" />
    <vehicle id="vid_130" type="vtype1" route="r3to10" depart="130" />
    <vehicle id="vid_131" type="vtype1" route="r2to8" depart="131" />
    <vehicle id="vid_132" type="vtype1" route="r3to10" depart="132" />
    <vehicle id="vid_133" type="vtype1" route="r2to10" depart="133" />
    <vehicle id="vid_134" type="vtype1" route="r2to8" depart="134" />
    <vehicle id="vid_135" type="vtype1" route="r3to8" depart="135" />
    <vehicle id="vid_136" type="vtype1" route="r2to10" depart="136" />
    <vehicle id="vid_137" type="vtype1" route="r1to8" depart="137" />
    <vehicle id="vid_138" type="vtype1" route="r1to9" depart="138" />
    <vehicle id="vid_139" type="vtype1" route="r1to9" depart="139" />
    <vehicle id="vid_140" type="vtype1" route="r3to8" depart="140" />
    <vehicle id="vid_141" type="vtype1" route="r2to8" depart="141" />
    <vehicle id="vid_142" type="vtype1" route="r2to10" depart="142" />
    <vehicle id="vid_143" type="vtype1" route="r3to8" depart="143" />
    <vehicle id="vid_144" type="vtype1" route="r2to8" depart="144" />
    <vehicle id="vid_145" type="vtype1" route="r1to10" depart="145" />
    <vehicle id="vid_146" type="vtype1" route="r2to8" depart="146" />
    <vehicle id="vid_147" type="vtype1" route="r3to9" depart="147" />
    <vehicle id="vid_148" type="vtype1" route="r2to8" depart="148" />
    <vehicle id="vid_149" type="vtype1" route="r1to10" depart="149" />
    <vehicle id="vid_150" type="vtype1" route="r3to9" depart="150" />
    <vehicle id="vid_151" type="vtype1" route="r3to9" depart="151" />
    <vehicle id="vid_152" type="vtype1" route="r1to8" depart="152" />
    <vehicle id="vid_153" type="vtype1" route="r1to10" depart="153" />
    <vehicle id="vid_154" type="vtype1" route="r3to10" depart="154" />
    <vehicle id="vid_155" type="vtype1" route="r3to8" depart="155" />
    <vehicle id="vid_156" type="vtype1" route="r1to8" depart="156" />
    <vehicle id="vid_157" type="vtype1" route="r3to10" depart="157" />
    <vehicle id="vid_158" type="vtype1" route="r2to9" depart="158" />
    <vehicle id="vid_159" type="vtype1" route="r1to10" depart="159" />
    <vehicle id="vid_160" type="vtype1" route="r3to10" depart="160" />
    <vehicle id="vid_161" type="vtype1" route="r3to10" depart="161" />
    <vehicle id="vid_162" type="vtype1" route="r1to10" depart="162" />
    <vehicle id="vid_163" type="vtype1" route="r1to10" depart="163" />
    <vehicle id="vid_164" type="vtype1" route="r3to10" depart="164" />
    <vehicle id="vid_165" type="vtype1" route="r3to8" depart="165" />
    <vehicle id="vid_166" type="vtype1" route="r3to8" depart="166" />
    <vehicle id="vid_167" type="vtype1" route="r3to10" depart="167" />
    <vehicle id="vid_168" type="vtype1" route="r1to10" depart="168" />
    <vehicle id="vid_169" type="vtype1" route="r2to8" depart="169" />
    <vehicle id="vid_170" type="vtype1" route="r3to8" depart="170" />
    <vehicle id="vid_171" type="vtype1" route="r1to8" depart="171" />
    <vehicle id="vid_172" type="vtype1" route="r1to10" depart="172" />
    <vehicle id="vid_173" type="vtype1" route="r3to8" depart="173" />
    <vehicle id="vid_174" type="vtype1" route="r2to9" depart="174" />
    <vehicle id="vid_175" type="vtype1" route="r3to9" depart="175" />
    <vehicle id="vid_176" type="vtype1" route="r3to8" depart="176" />
    <vehicle id="vid_177" type="vtype1" route="r3to8" depart="177" />
    <vehicle id="vid_178" type="vtype1" route="r3to8" depart="178" />
    <vehicle id="vid_179" type="vtype1" route="r1to9" depart="179" />
    <vehicle id="vid_180" type="vtype1" route="r3to8" depart="180" />
    <vehicle id="vid_181" type="vtype1" route="r2to9" depart="181" />
    <vehicle id="vid_182" type="vtype1" route="r2to9" depart="182" />
    <vehicle id="vid_183" type="vtype1" route="r1to10" depart="183" />
    <vehicle id="vid_184" type="vtype1" route="r1to10" depart="184" />
    <vehicle id="vid_185" type="vtype1" route="r2to10" depart="185" />
    <vehicle id="vid_186" type="vtype1" route="r3to10" depart="186" />
    <vehicle id="vid_187" type="vtype1" route="r2to8" depart="187" />
    <vehicle id="vid_188" type="vtype1" route="r2to8" depart="188" />
    <vehicle id="vid_189" type="vtype1" route="r1to10" depart="189" />
    <vehicle id="vid_190" type="vtype1" route="r3to8" depart="190" />
    <vehicle id="vid_191" type="vtype1" route="r1to9" depart="191" />
    <vehicle id="vid_192" type="vtype1" route="r2to8" depart="192" />
    <vehicle id="vid_193" type="vtype1" route="r1to9" depart="193" />
    <vehicle id="vid_194" type="vtype1" route="r3to10" depart="194" />
    <vehicle id="vid_195" type="vtype1" route="r3to9" depart="195" />
    <vehicle id="vid_196" type="vtype1" route="r1to9" depart="196" />
    <vehicle id="vid_197" type="vtype1" route="r1to8" depart="197" />
    <vehicle id="vid_198" type="vtype1" route="r2to9" depart="198" />
    <vehicle id="vid_199" type="vtype1" route="r2to9" depart="199" />
    <vehicle id="vid_200" type="vtype1" route="r2to8" depart="200" />
    <vehicle id="vid_201" type="vtype1" route="r2to10" depart="201" />
    <vehicle id="vid_202" type="vtype1" route="r3to8" depart="202" />
    <vehicle id="vid_203" type="vtype1" route="r1to9" depart="203" />
    <vehicle id="vid_204" type="vtype1" route="r2to9" depart="204" />
    <vehicle id="vid_205" type="vtype1" route="r3to10" depart="205" />
    <vehicle id="vid_206" type="vtype1" route="r3to8" depart="206" />
    <vehicle id="vid_207" type="vtype1" route="r1to8" depart="207" />
    <vehicle id="vid_208" type="vtype1" route="r1to9" depart="208" />
    <vehicle id="vid_209" type="vtype1" route="r3to8" depart="209" />
    <vehicle id="vid_210" type="vtype1" route="r2to9" depart="210" />
    <vehicle id="vid_211" type="vtype1" route="r1to10" depart="211" />
    <vehicle id="vid_212" type="vtype1" route="r2to8" depart="212" />
    <vehicle id="vid_213" type="vtype1" route="r2to8" depart="213" />
    <vehicle id="vid_214" type="vtype1" route="r3to10" depart="214" />
    <vehicle id="vid_215" type="vtype1" route="r1to9" depart="215" />
    <vehicle id="vid_216" type="vtype1" route="r1to10" depart="216" />
    <vehicle id="vid_217" type="vtype1" route="r2to8" depart="217" />
    <vehicle id="vid_218" type="vtype1" route="r1to10" depart="218" />
    <vehicle id="vid_219" type="vtype1" route="r2to10" depart="219" />
    <vehicle id="vid_220" type="vtype1" route="r3to10" depart="220" />
    <vehicle id="vid_221" type="vtype1" route="r2to10" depart="221" />
    <vehicle id="vid_222" type="vtype1" route="r3to9" depart="222" />
    <vehicle id="vid_223" type="vtype1" route="r3to9" depart="223" />
    <vehicle id="vid_224" type="vtype1" route="r3to9" depart="224" />
    <vehicle id="vid_225" type="vtype1" route="r3to10" depart="225" />
    <vehicle id="vid_226" type="vtype1" route="r2to8" depart="226" />
    <vehicle id="vid_227" type="vtype1" route="r1to9" depart="227" />
    <vehicle id="vid_228" type="vtype1" route="r3to9" depart="228" />
    <vehicle id="vid_229" type="vtype1" route="r2to8" depart="229" />
    <vehicle id="vid_230" type="vtype1" route="r1to8" depart="230" />
    <vehicle id="vid_231" type="vtype1" route="r1to8" depart="231" />
    <vehicle id="vid_232" type="vtype1" route="r2to8" depart="232" />
    <vehicle id="vid_233" type="vtype1" route="r1to10" depart="233" />
    <vehicle id="vid_234" type="vtype1" route="r3to8" depart="234" />
    <vehicle id="vid_235" type="vtype1" route="r2to9" depart="235" />
    <vehicle id="vid_236" type="vtype1" route="r2to8" depart="236" />
    <vehicle id="vid_237" type="vtype1" route="r2to10" depart="237" />
    <vehicle id="vid_238" type="vtype1" route="r2to10" depart="238" />
    <vehicle id="vid_239" type="vtype1" route="r3to10" depart="239" />
    <vehicle id="vid_240" type="vtype1" route="r2to8" depart="240" />
    <vehicle id="vid_241" type="vtype1" route="r2to10" depart="241" />
    <vehicle id="vid_242" type="vtype1" route="r3to10" depart="242" />
    <vehicle id="vid_243" type="vtype1" route="r2to10" depart="243" />
    <vehicle id="vid_244" type="vtype1" route="r2to9" depart="244" />
    <vehicle id="vid_245" type="vtype1" route="r1to8" depart="245" />
    <vehicle id="vid_246" type="vtype1" route="r2to8" depart="246" />
    <vehicle id="vid_247" type="vtype1" route="r2to10" depart="247" />
    <vehicle id="vid_248" type="vtype1" route="r2to8" depart="248" />
    <vehicle id="vid_249" type="vtype1" route="r2to8" depart="249" />
    <vehicle id="vid_250" type="vtype1" route="r2to8" depart="250" />
    <vehicle id="vid_251" type="vtype1" route="r2to9" depart="251" />
    <vehicle id="vid_252" type="vtype1" route="r1to9" depart="252" />
    <vehicle id="vid_253" type="vtype1" route="r1to9" depart="253" />
    <vehicle id="vid_254" type="vtype1" route="r1to9" depart="254" />
    <vehicle id="vid_255" type="vtype1" route="r1to8" depart="255" />
    <vehicle id="vid_256" type="vtype1" route="r3to9" depart="256" />
    <vehicle id="vid_257" type="vtype1" route="r3to10" depart="257" />
    <vehicle id="vid_258" type="vtype1" route="r1to8" depart="258" />
    <vehicle id="vid_259" type="vtype1" route="r1to9" depart="259" />
    <vehicle id="vid_260" type="vtype1" route="r3to9" depart="260" />
    <vehicle id="vid_261" type="vtype1" route="r2to10" depart="261" />
    <vehicle id="vid_262" type="vtype1" route="r2to10" depart="262" />
    <vehicle id="vid_263" type="vtype1" route="r3to8" depart="263" />
    <vehicle id="vid_264" type="vtype1" route="r1to8" depart="264" />
    <vehicle id="vid_265" type="vtype1" route="r1to10" depart="265" />
    <vehicle id="vid_266" type="vtype1" route="r2to8" depart="266" />
    <vehicle id="vid_267" type="vtype1" route="r3to10" depart="267" />
    <vehicle id="vid_268" type="vtype1" route="r1to9" depart="268" />
    <vehicle id="vid_269" type="vtype1" route="r3to8" depart="269" />
    <vehicle id="vid_270" type="vtype1" route="r3to10" depart="270" />
    <vehicle id="vid_271" type="vtype1" route="r1to8" depart="271" />
    <vehicle id="vid_272" type="vtype1" route="r1to10" depart="272" />
    <vehicle id="vid_273" type="vtype1" route="r3to9" depart="273" />
    <vehicle id="vid_274" type="vtype1" route="r3to8" depart="274" />
    <vehicle id="vid_275" type="vtype1" route="r3to9" depart="275" />
    <vehicle id="vid_276" type="vtype1" route="r1to10" depart="276" />
    <vehicle id="vid_277" type="vtype1" route="r3to9" depart="277" />
    <vehicle id="vid_278" type="vtype1" route="r1to10" depart="278" />
    <vehicle id="vid_279" type="vtype1" route="r3to9" depart="279" />
    <vehicle id="vid_280" type="vtype1" route="r2to9" depart="280" />
    <vehicle id="vid_281" type="vtype1" route="r2to9" depart="281" />
    <vehicle id="vid_282" type="vtype1" route="r3to10" depart="282" />
    <vehicle id="vid_283" type="vtype1" route="r1to10" depart="283" />
    <vehicle id="vid_284" type="vtype1" route="r2to10" depart="284" />
    <vehicle id="vid_285" type="vtype1" route="r3to9" depart="285" />
    <vehicle id="vid_286" type="vtype1" route="r3to10" depart="286" />
    <vehicle id="vid_287" type="vtype1" route="r1to10" depart="287" />
    <vehicle id="vid_288" type="vtype1" route="r2to9" depart="288" />
    <vehicle id="vid_289" type="vtype1" route="r2to10" depart="289" />
    <vehicle id="vid_290" type="vtype1" route="r1to10" depart="290" />
    <vehicle id="vid_291" type="vtype1" route="r3to8" depart="291" />
    <vehicle id="vid_292" type="vtype1" route="r3to8" depart="292" />
    <vehicle id="vid_293" type="vtype1" route="r2to9" depart="293" />
    <vehicle id="vid_294" type="vtype1" route="r2to8" depart="294" />
    <vehicle id="vid_295" type="vtype1" route="r3to8" depart="295" />
    <vehicle id="vid_296" type="vtype1" route="r1to10" depart="296" />
    <vehicle id="vid_297" type="vtype1" route="r2to10" depart="297" />
    <vehicle id="vid_298" type="vtype1" route="r3to8" depart="298" />
    <vehicle id="vid_299" type="vtype1" route="r1to10" depart="299" />
    <vehicle id="vid_300" type="vtype1" route="r1to10" depart="300" />
    <vehicle id="vid_301" type="vtype1" route="r2to10" depart="301" />
    <vehicle id="vid_302" type="vtype1" route="r3to9" depart="302" />
    <vehicle id="vid_303" type="vtype1" route="r2to10" depart="303" />
    <vehicle id="vid_304" type="vtype1" route="r1to8" depart="304" />
    <vehicle id="vid_305" type="vtype1" route="r3to8" depart="305" />
    <vehicle id="vid_306" type="vtype1" route="r2to9" depart="306" />
    <vehicle id="vid_307" type="vtype1" route="r2to9" depart="307" />
    <vehicle id="vid_308" type="vtype1" route="r3to8" depart="308" />
    <vehicle id="vid_309" type="vtype1" route="r3to8" depart="309" />
    <vehicle id="vid_310" type="vtype1" route="r1to8" depart="310" />
    <vehicle id="vid_311" type="vtype1" route="r1to8" depart="311" />
    <vehicle id="vid_312" type="vtype1" route="r2to10" depart="312" />
    <vehicle id="vid_313" type="vtype1" route="r1to8" depart="313" />
    <vehicle id="vid_314" type="vtype1" route="r2to10" depart="314" />
    <vehicle id="vid_315" type="vtype1" route="r3to9" depart="315" />
    <vehicle id="vid_316" type="vtype1" route="r1to8" depart="316" />
    <vehicle id="vid_317" type="vtype1" route="r1to8" depart="317" />
    <vehicle id="vid_318" type="vtype1" route="r1to8" depart="318" />
    <vehicle id="vid_319" type="vtype1" route="r2to8" depart="319" />
    <vehicle id="vid_320" type="vtype1" route="r3to9" depart="320" />
    <vehicle id="vid_321" type="vtype1" route="r3to8" depart="321" />
    <vehicle id="vid_322" type="vtype1" route="r3to9" depart="322" />
    <vehicle id="vid_323" type="vtype1" route="r3to9" depart="323" />
    <vehicle id="vid_324" type="vtype1" route="r2to9" depart="324" />
    <vehicle id="vid_325" type="vtype1" route="r1to8" depart="325" />
    <vehicle id="vid_326" type="vtype1" route="r3to9" depart="326" />
    <vehicle id="vid_327" type="vtype1" route="r3to9" depart="327" />
    <vehicle id="vid_328" type="vtype1" route="r1to9" depart="328" />
    <vehicle id="vid_329" type="vtype1" route="r1to8" depart="329" />
    <vehicle id="vid_330" type="vtype1" route="r2to8" depart="330" />
    <vehicle id="vid_331" type="vtype1" route="r3to8" depart="331" />
    <vehicle id="vid_332" type="vtype1" route="r3to9" depart="332" />
    <vehicle id="vid_333" type="vtype1" route="r3to8" depart="333" />
    <vehicle id="vid_334" type="vtype1" route="r2to9" depart="334" />
    <vehicle id="vid_335" type="vtype1" route="r2to10" depart="335" />
    <vehicle id="vid_336" type="vtype1" route="r3to8" depart="336" />
    <vehicle id="vid_337" type="vtype1" route="r2to9" depart="337" />
    <vehicle id="vid_338" type="vtype1" route="r3to10" depart="338" />
    <vehicle id="vid_339" type="vtype1" route="r1to8" depart="339" />
    <vehicle id="vid_340" type="vtype1" route="r2to8" depart="340" />
    <vehicle id="vid_341" type="vtype1" route="r1to8" depart="341" />
    <vehicle id="vid_342" type="vtype1" route="r1to9" depart="342" />
    <vehicle id="vid_343" type="vtype1" route="r2to8" depart="343" />
    <vehicle id="vid_344" type="vtype1" route="r1to10" depart="344" />
    <vehicle id="vid_345" type="vtype1" route="r3to9" depart="345" />
    <vehicle id="vid_346" type="vtype1" route="r3to10" depart="346" />
    <vehicle id="vid_347" type="vtype1" route="r3to9" depart="347" />
    <vehicle id="vid_348" type="vtype1" route="r2to10" depart="348" />
    <vehicle id="vid_349" type="vtype1" route="r2to9" depart="349" />
    <vehicle id="vid_350" type="vtype1" route="r2to10" depart="350" />
    <vehicle id="vid_351" type="vtype1" route="r3to8" depart="351" />
    <vehicle id="vid_352" type="vtype1" route="r1to8" depart="352" />
    <vehicle id="vid_353" type="vtype1" route="r3to9" depart="353" />
    <vehicle id="vid_354" type="vtype1" route="r1to8" depart="354" />
    <vehicle id="vid_355" type="vtype1" route="r3to10" depart="355" />
    <vehicle id="vid_356" type="vtype1" route="r3to9" depart="356" />
    <vehicle id="vid_357" type="vtype1" route="r2to8" depart="357" />
    <vehicle id="vid_358" type="vtype1" route="r1to9" depart="358" />
    <vehicle id="vid_359" type="vtype1" route="r1to8" depart="359" />
    <vehicle id="vid_360" type="vtype1" route="r1to10" depart="360" />
    <vehicle id="vid_361" type="vtype1" route="r3to9" depart="361" />
    <vehicle id="vid_362" type="vtype1" route="r3to10" depart="362" />
    <vehicle id="vid_363" type="vtype1" route="r3to8" depart="363" />
    <vehicle id="vid_364" type="vtype1" route="r1to10" depart="364" />
    <vehicle id="vid_365" type="vtype1" route="r2to9" depart="365" />
    <vehicle id="vid_366" type="vtype1" route="r3to8" depart="366" />
    <vehicle id="vid_367" type="vtype1" route="r2to9" depart="367" />
    <vehicle id="vid_368" type="vtype1" route="r2to8" depart="368" />
    <vehicle id="vid_369" type="vtype1" route="r2to8" depart="369" />
    <vehicle id="vid_370" type="vtype1" route="r3to10" depart="370" />
    <vehicle id="vid_371" type="vtype1" route="r1to10" depart="371" />
    <vehicle id="vid_372" type="vtype1" route="r1to10" depart="372" />
    <vehicle id="vid_373" type="vtype1" route="r3to9" depart="373" />
    <vehicle id="vid_374" type="vtype1" route="r2to8" depart="374" />
    <vehicle id="vid_375" type="vtype1" route="r1to10" depart="375" />
    <vehicle id="vid_376" type="vtype1" route="r2to9" depart="376" />
    <vehicle id="vid_377" type="vtype1" route="r3to9" depart="377" />
    <vehicle id="vid_378" type="vtype1" route="r2to9" depart="378" />
    <vehicle id="vid_379" type="vtype1" route="r1to9" depart="379" />
    <vehicle id="vid_380" type="vtype1" route="r3to9" depart="380" />
    <vehicle id="vid_381" type="vtype1" route="r3to8" depart="381" />
    <vehicle id="vid_382" type="vtype1" route="r2to10" depart="382" />
    <vehicle id="vid_383" type="vtype1" route="r2to10" depart="383" />
    <vehicle id="vid_384" type="vtype1" route="r1to10" depart="384" />
    <vehicle id="vid_385" type="vtype1" route="r2to8" depart="385" />
    <vehicle id="vid_386" type="vtype1" route="r1to9" depart="386" />
    <vehicle id="vid_387" type="vtype1" route="r2to8" depart="387" />
    <vehicle id="vid_388" type="vtype1" route="r3to10" depart="388" />
    <vehicle id="vid_389" type="vtype1" route="r2to8" depart="389" />
    <vehicle id="vid_390" type="vtype1" route="r3to9" depart="390" />
    <vehicle id="vid_391" type="vtype1" route="r3to9" depart="391" />
    <vehicle id="vid_392" type="vtype1" route="r1to10" depart="392" />
    <vehicle id="vid_393" type="vtype1" route="r3to8" depart="393" />
    <vehicle id="vid_394" type="vtype1" route="r2to9" depart="394" />
    <vehicle id="vid_395" type="vtype1" route="r3to9" depart="395" />