<nodes>
    <node id="1"  x="-250.0" y="0.0" />
    <node id="2"  x="-180.0" y="70.0" />
    <node id="3"  x="-150.0" y="0.0" />
    <node id="4"  x="-180.0" y="-70.0" />
    <node id="5"  x="-80.0"  y="70.0" />
    <node id="6"  x="-50.0"  y="0.0" />
    <node id="7"  x="-80.0" y="-70.0" />
    <node id="8"  x="+20.0"    y="70.0" />
    <node id="9"  x="+20.0" y="-70.0" />
    <node id="10" x="+50.0"  y="0.0" />
</nodes>
