<routes>
        <vType id="vtype0" accel="0.8" decel="4.5" sigma="0.5" length="5" minGap="2.5" maxSpeed="16.67" guiShape="passenger"/>
        <vType id="vtype1" accel="0.8" decel="4.5" sigma="0.5" length="5" minGap="2.5" maxSpeed="16.67" guiShape="passenger"/>
        <route id="r1to2" edges="1to2 " />
        <route id="r1to3" edges="1to3 " />
        <route id="r1to4" edges="1to4 " />
        <route id="r1to5" edges="1to4 4to5 " />
        <route id="r1to6" edges="1to4 4to6 " />
        <route id="r1to7" edges="1to4 4to7 " />
        <route id="r1to8" edges="1to4 4to7 7to8 " />
        <route id="r1to9" edges="1to4 4to7 7to9 " />
        <route id="r1to10" edges="1to4 4to5 5to6 6to7 7to8 8to9 9to10 " />
        <route id="r2to3" edges="2to3 " />
        <route id="r2to4" edges="2to4 " />
        <route id="r2to5" edges="2to5 " />
        <route id="r2to6" edges="2to5 5to6 " />
        <route id="r2to7" edges="2to5 5to7 " />
        <route id="r2to8" edges="2to5 5to8 " />
        <route id="r2to9" edges="2to5 5to8 8to9 " />
        <route id="r2to10" edges="2to5 5to8 8to10 " />
        <route id="r3to4" edges="3to4 " />
        <route id="r3to5" edges="3to5 " />
        <route id="r3to6" edges="3to6 " />
        <route id="r3to7" edges="3to6 6to7 " />
        <route id="r3to8" edges="3to6 6to8 " />
        <route id="r3to9" edges="3to6 6to9 " />
        <route id="r3to10" edges="3to6 6to9 9to10 " />
        <route id="r4to5" edges="4to5 " />
        <route id="r4to6" edges="4to6 " />
        <route id="r4to7" edges="4to7 " />
        <route id="r4to8" edges="4to7 7to8 " />
        <route id="r4to9" edges="4to7 7to9 " />
        <route id="r4to10" edges="4to7 7to10 " />
        <route id="r5to6" edges="5to6 " />
        <route id="r5to7" edges="5to7 " />
        <route id="r5to8" edges="5to8 " />
        <route id="r5to9" edges="5to8 8to9 " />
        <route id="r5to10" edges="5to8 8to10 " />
        <route id="r6to7" edges="6to7 " />
        <route id="r6to8" edges="6to8 " />
        <route id="r6to9" edges="6to9 " />
        <route id="r6to10" edges="6to9 9to10 " />
        <route id="r7to8" edges="7to8 " />
        <route id="r7to9" edges="7to9 " />
        <route id="r7to10" edges="7to10 " />
        <route id="r8to9" edges="8to9 " />
        <route id="r8to10" edges="8to10 " />
        <route id="r9to10" edges="9to10 " />
    <vehicle id="vid#0#1#10" type="vtype1" route="r1to10" depart="0" />
    <vehicle id="vid#1#1#10" type="vtype1" route="r1to10" depart="0" />
    <vehicle id="vid#2#1#10" type="vtype1" route="r1to10" depart="0" />
    <vehicle id="vid#3#1#10" type="vtype1" route="r1to10" depart="0" />
    <vehicle id="vid#4#1#10" type="vtype1" route="r1to10" depart="0" />
    <vehicle id="vid#5#1#10" type="vtype1" route="r1to10" depart="0" />
    <vehicle id="vid#6#1#10" type="vtype1" route="r1to10" depart="0" />
    <vehicle id="vid#7#1#10" type="vtype1" route="r1to10" depart="0" />
    <vehicle id="vid#8#1#10" type="vtype1" route="r1to10" depart="0" />
    <vehicle id="vid#9#1#10" type="vtype1" route="r1to10" depart="0" />
    <vehicle id="vid#10#1#10" type="vtype1" route="r1to10" depart="0" />
    <vehicle id="vid#11#1#10" type="vtype1" route="r1to10" depart="0" />
    <vehicle id="vid#12#1#10" type="vtype1" route="r1to10" depart="0" />
    <vehicle id="vid#13#1#10" type="vtype1" route="r1to10" depart="0" />
    <vehicle id="vid#14#1#10" type="vtype1" route="r1to10" depart="0" />
    <vehicle id="vid#15#1#10" type="vtype1" route="r1to10" depart="0" />
    <vehicle id="vid#16#1#10" type="vtype1" route="r1to10" depart="0" />
    <vehicle id="vid#17#1#10" type="vtype1" route="r1to10" depart="0" />
    <vehicle id="vid#18#1#10" type="vtype1" route="r1to10" depart="0" />
    <vehicle id="vid#19#1#10" type="vtype1" route="r1to10" depart="0" />
    <vehicle id="vid#20#1#10" type="vtype1" route="r1to10" depart="0" />
    <vehicle id="vid#21#1#10" type="vtype1" route="r1to10" depart="0" />
    <vehicle id="vid#22#1#10" type="vtype1" route="r1to10" depart="0" />
    <vehicle id="vid#23#1#10" type="vtype1" route="r1to10" depart="0" />
    <vehicle id="vid#24#1#10" type="vtype1" route="r1to10" depart="0" />
    <vehicle id="vid#25#1#10" type="vtype1" route="r1to10" depart="0" />
    <vehicle id="vid#26#1#10" type="vtype1" route="r1to10" depart="0" />
    <vehicle id="vid#27#1#10" type="vtype1" route="r1to10" depart="0" />
    <vehicle id="vid#28#1#10" type="vtype1" route="r1to10" depart="0" />
    <vehicle id="vid#29#1#10" type="vtype1" route="r1to10" depart="0" />
    <vehicle id="vid#30#1#10" type="vtype1" route="r1to10" depart="0" />
    <vehicle id="vid#31#1#10" type="vtype1" route="r1to10" depart="0" />
    <vehicle id="vid#32#1#10" type="vtype1" route="r1to10" depart="0" />
    <vehicle id="vid#33#1#10" type="vtype1" route="r1to10" depart="0" />
    <vehicle id="vid#34#1#10" type="vtype1" route="r1to10" depart="0" />
    <vehicle id="vid#35#1#10" type="vtype1" route="r1to10" depart="0" />
    <vehicle id="vid#36#1#10" type="vtype1" route="r1to10" depart="0" />
    <vehicle id="vid#37#1#10" type="vtype1" route="r1to10" depart="0" />
    <vehicle id="vid#38#1#10" type="vtype1" route="r1to10" depart="0" />
    <vehicle id="vid#39#1#10" type="vtype1" route="r1to10" depart="0" />
    <vehicle id="vid#40#1#10" type="vtype1" route="r1to10" depart="0" />
    <vehicle id="vid#41#1#10" type="vtype1" route="r1to10" depart="0" />
    <vehicle id="vid#42#1#10" type="vtype1" route="r1to10" depart="0" />
    <vehicle id="vid#43#1#10" type="vtype1" route="r1to10" depart="0" />
    <vehicle id="vid#44#1#10" type="vtype1" route="r1to10" depart="0" />
    <vehicle id="vid#45#1#10" type="vtype1" route="r1to10" depart="0" />
    <vehicle id="vid#46#1#10" type="vtype1" route="r1to10" depart="0" />
    <vehicle id="vid#47#1#10" type="vtype1" route="r1to10" depart="0" />
    <vehicle id="vid#48#1#10" type="vtype1" route="r1to10" depart="0" />
    <vehicle id="vid#49#1#10" type="vtype1" route="r1to10" depart="0" />
    <vehicle id="vid#50#1#10" type="vtype1" route="r1to10" depart="0" />
    <vehicle id="vid#51#1#10" type="vtype1" route="r1to10" depart="0" />
    <vehicle id="vid#52#1#10" type="vtype1" route="r1to10" depart="0" />
    <vehicle id="vid#53#1#10" type="vtype1" route="r1to10" depart="0" />
    <vehicle id="vid#54#1#10" type="vtype1" route="r1to10" depart="0" />
    <vehicle id="vid#55#1#10" type="vtype1" route="r1to10" depart="0" />
    <vehicle id="vid#56#1#10" type="vtype1" route="r1to10" depart="0" />
    <vehicle id="vid#57#1#10" type="vtype1" route="r1to10" depart="0" />
    <vehicle id="vid#58#1#10" type="vtype1" route="r1to10" depart="0" />
    <vehicle id="vid#59#1#10" type="vtype1" route="r1to10" depart="0" />
    <vehicle id="vid#60#1#10" type="vtype1" route="r1to10" depart="0" />
    <vehicle id="vid#61#1#10" type="vtype1" route="r1to10" depart="0" />
    <vehicle id="vid#62#1#10" type="vtype1" route="r1to10" depart="0" />
    <vehicle id="vid#63#1#10" type="vtype1" route="r1to10" depart="0" />
    <vehicle id="vid#64#1#10" type="vtype1" route="r1to10" depart="0" />
    <vehicle id="vid#65#1#10" type="vtype1" route="r1to10" depart="0" />
    <vehicle id="vid#66#1#10" type="vtype1" route="r1to10" depart="0" />
    <vehicle id="vid#67#1#10" type="vtype1" route="r1to10" depart="0" />
    <vehicle id="vid#68#1#10" type="vtype1" route="r1to10" depart="0" />
    <vehicle id="vid#69#1#10" type="vtype1" route="r1to10" depart="0" />
    <vehicle id="vid#70#1#10" type="vtype1" route="r1to10" depart="0" />
    <vehicle id="vid#71#1#10" type="vtype1" route="r1to10" depart="0" />
    <vehicle id="vid#72#1#10" type="vtype1" route="r1to10" depart="0" />
    <vehicle id="vid#73#1#10" type="vtype1" route="r1to10" depart="0" />
    <vehicle id="vid#74#1#10" type="vtype1" route="r1to10" depart="0" />
    <vehicle id="vid#75#1#10" type="vtype1" route="r1to10" depart="0" />
    <vehicle id="vid#76#1#10" type="vtype1" route="r1to10" depart="0" />
    <vehicle id="vid#77#1#10" type="vtype1" route="r1to10" depart="0" />
    <vehicle id="vid#78#1#10" type="vtype1" route="r1to10" depart="0" />
    <vehicle id="vid#79#1#10" type="vtype1" route="r1to10" depart="0" />
    <vehicle id="vid#80#1#10" type="vtype1" route="r1to10" depart="0" />
    <vehicle id="vid#81#1#10" type="vtype1" route="r1to10" depart="0" />
    <vehicle id="vid#82#1#10" type="vtype1" route="r1to10" depart="0" />
    <vehicle id="vid#83#1#10" type="vtype1" route="r1to10" depart="0" />
    <vehicle id="vid#84#1#10" type="vtype1" route="r1to10" depart="0" />
    <vehicle id="vid#85#1#10" type="vtype1" route="r1to10" depart="0" />
    <vehicle id="vid#86#1#10" type="vtype1" route="r1to10" depart="0" />
    <vehicle id="vid#87#1#10" type="vtype1" route="r1to10" depart="0" />
    <vehicle id="vid#88#1#10" type="vtype1" route="r1to10" depart="0" />
    <vehicle id="vid#89#1#10" type="vtype1" route="r1to10" depart="0" />
    <vehicle id="vid#90#1#10" type="vtype1" route="r1to10" depart="0" />
    <vehicle id="vid#91#1#10" type="vtype1" route="r1to10" depart="0" />
    <vehicle id="vid#92#1#10" type="vtype1" route="r1to10" depart="0" />
    <vehicle id="vid#93#1#10" type="vtype1" route="r1to10" depart="0" />
    <vehicle id="vid#94#1#10" type="vtype1" route="r1to10" depart="0" />
    <vehicle id="vid#95#1#10" type="vtype1" route="r1to10" depart="0" />
    <vehicle id="vid#96#1#10" type="vtype1" route="r1to10" depart="0" />
    <vehicle id="vid#97#1#10" type="vtype1" route="r1to10" depart="0" />
    <vehicle id="vid#98#1#10" type="vtype1" route="r1to10" depart="0" />
    <vehicle id="vid#99#1#10" type="vtype1" route="r1to10" depart="0" />
    <vehicle id="vid#100#1#10" type="vtype1" route="r1to10" depart="0" />
    <vehicle id="vid#101#1#10" type="vtype1" route="r1to10" depart="0" />
    <vehicle id="vid#102#1#10" type="vtype1" route="r1to10" depart="0" />
    <vehicle id="vid#103#1#10" type="vtype1" route="r1to10" depart="0" />
    <vehicle id="vid#104#1#10" type="vtype1" route="r1to10" depart="0" />
    <vehicle id="vid#105#1#10" type="vtype1" route="r1to10" depart="0" />
    <vehicle id="vid#106#1#10" type="vtype1" route="r1to10" depart="0" />
    <vehicle id="vid#107#1#10" type="vtype1" route="r1to10" depart="0" />
    <vehicle id="vid#108#1#10" type="vtype1" route="r1to10" depart="0" />
    <vehicle id="vid#109#1#10" type="vtype1" route="r1to10" depart="0" />
    <vehicle id="vid#110#1#10" type="vtype1" route="r1to10" depart="0" />
    <vehicle id="vid#111#1#10" type="vtype1" route="r1to10" depart="0" />
    <vehicle id="vid#112#1#10" type="vtype1" route="r1to10" depart="0" />
    <vehicle id="vid#113#1#10" type="vtype1" route="r1to10" depart="0" />
    <vehicle id="vid#114#1#10" type="vtype1" route="r1to10" depart="0" />
    <vehicle id="vid#115#1#10" type="vtype1" route="r1to10" depart="0" />
    <vehicle id="vid#116#1#10" type="vtype1" route="r1to10" depart="0" />
    <vehicle id="vid#117#1#10" type="vtype1" route="r1to10" depart="0" />
    <vehicle id="vid#118#1#10" type="vtype1" route="r1to10" depart="0" />
    <vehicle id="vid#119#1#10" type="vtype1" route="r1to10" depart="0" />
    <vehicle id="vid#120#1#10" type="vtype1" route="r1to10" depart="0" />
    <vehicle id="vid#121#1#10" type="vtype1" route="r1to10" depart="0" />
    <vehicle id="vid#122#1#10" type="vtype1" route="r1to10" depart="0" />
    <vehicle id="vid#123#1#10" type="vtype1" route="r1to10" depart="0" />
    <vehicle id="vid#124#1#10" type="vtype1" route="r1to10" depart="0" />
    <vehicle id="vid#125#1#10" type="vtype1" route="r1to10" depart="0" />
    <vehicle id="vid#126#1#10" type="vtype1" route="r1to10" depart="0" />
    <vehicle id="vid#127#1#10" type="vtype1" route="r1to10" depart="0" />
    <vehicle id="vid#128#1#10" type="vtype1" route="r1to10" depart="0" />
    <vehicle id="vid#129#1#10" type="vtype1" route="r1to10" depart="0" />
    <vehicle id="vid#130#1#10" type="vtype1" route="r1to10" depart="0" />
    <vehicle id="vid#131#1#10" type="vtype1" route="r1to10" depart="0" />
    <vehicle id="vid#132#1#10" type="vtype1" route="r1to10" depart="0" />
    <vehicle id="vid#133#1#10" type="vtype1" route="r1to10" depart="0" />
    <vehicle id="vid#134#1#10" type="vtype1" route="r1to10" depart="0" />
    <vehicle id="vid#135#1#10" type="vtype1" route="r1to10" depart="0" />
    <vehicle id="vid#136#1#10" type="vtype1" route="r1to10" depart="0" />
    <vehicle id="vid#137#1#10" type="vtype1" route="r1to10" depart="0" />
    <vehicle id="vid#138#1#10" type="vtype1" route="r1to10" depart="0" />
    <vehicle id="vid#139#1#10" type="vtype1" route="r1to10" depart="0" />
    <vehicle id="vid#140#1#10" type="vtype1" route="r1to10" depart="0" />
    <vehicle id="vid#141#1#10" type="vtype1" route="r1to10" depart="0" />
    <vehicle id="vid#142#1#10" type="vtype1" route="r1to10" depart="0" />
    <vehicle id="vid#143#1#10" type="vtype1" route="r1to10" depart="0" />
    <vehicle id="vid#144#1#10" type="vtype1" route="r1to10" depart="0" />
    <vehicle id="vid#145#1#10" type="vtype1" route="r1to10" depart="0" />
    <vehicle id="vid#146#1#10" type="vtype1" route="r1to10" depart="0" />
    <vehicle id="vid#147#1#10" type="vtype1" route="r1to10" depart="0" />
    <vehicle id="vid#148#1#10" type="vtype1" route="r1to10" depart="0" />
    <vehicle id="vid#149#1#10" type="vtype1" route="r1to10" depart="0" />
    <vehicle id="vid#150#1#10" type="vtype1" route="r1to10" depart="0" />
    <vehicle id="vid#151#1#10" type="vtype1" route="r1to10" depart="0" />
    <vehicle id="vid#152#1#10" type="vtype1" route="r1to10" depart="0" />
    <vehicle id="vid#153#1#10" type="vtype1" route="r1to10" depart="0" />
    <vehicle id="vid#154#1#10" type="vtype1" route="r1to10" depart="0" />
    <vehicle id="vid#155#1#10" type="vtype1" route="r1to10" depart="0" />
    <vehicle id="vid#156#1#10" type="vtype1" route="r1to10" depart="0" />
    <vehicle id="vid#157#1#10" type="vtype1" route="r1to10" depart="0" />
    <vehicle id="vid#158#1#10" type="vtype1" route="r1to10" depart="0" />
    <vehicle id="vid#159#1#10" type="vtype1" route="r1to10" depart="0" />
    <vehicle id="vid#160#1#10" type="vtype1" route="r1to10" depart="0" />
    <vehicle id="vid#161#1#10" type="vtype1" route="r1to10" depart="0" />
    <vehicle id="vid#162#1#10" type="vtype1" route="r1to10" depart="0" />
    <vehicle id="vid#163#1#10" type="vtype1" route="r1to10" depart="0" />
    <vehicle id="vid#164#1#10" type="vtype1" route="r1to10" depart="0" />
    <vehicle id="vid#165#1#10" type="vtype1" route="r1to10" depart="0" />
    <vehicle id="vid#166#1#10" type="vtype1" route="r1to10" depart="0" />
    <vehicle id="vid#167#1#10" type="vtype1" route="r1to10" depart="0" />
    <vehicle id="vid#168#1#10" type="vtype1" route="r1to10" depart="0" />
    <vehicle id="vid#169#1#10" type="vtype1" route="r1to10" depart="0" />
    <vehicle id="vid#170#1#10" type="vtype1" route="r1to10" depart="0" />
    <vehicle id="vid#171#1#10" type="vtype1" route="r1to10" depart="0" />
    <vehicle id="vid#172#1#10" type="vtype1" route="r1to10" depart="0" />
    <vehicle id="vid#173#1#10" type="vtype1" route="r1to10" depart="0" />
    <vehicle id="vid#174#1#10" type="vtype1" route="r1to10" depart="0" />
    <vehicle id="vid#175#1#10" type="vtype1" route="r1to10" depart="0" />
    <vehicle id="vid#176#1#10" type="vtype1" route="r1to10" depart="0" />
    <vehicle id="vid#177#1#10" type="vtype1" route="r1to10" depart="0" />
    <vehicle id="vid#178#1#10" type="vtype1" route="r1to10" depart="0" />
    <vehicle id="vid#179#1#10" type="vtype1" route="r1to10" depart="0" />
    <vehicle id="vid#180#1#10" type="vtype1" route="r1to10" depart="0" />
    <vehicle id="vid#181#1#10" type="vtype1" route="r1to10" depart="0" />
    <vehicle id="vid#182#1#10" type="vtype1" route="r1to10" depart="0" />
    <vehicle id="vid#183#1#10" type="vtype1" route="r1to10" depart="0" />
    <vehicle id="vid#184#1#10" type="vtype1" route="r1to10" depart="0" />
    <vehicle id="vid#185#1#10" type="vtype1" route="r1to10" depart="0" />
    <vehicle id="vid#186#1#10" type="vtype1" route="r1to10" depart="0" />
    <vehicle id="vid#187#1#10" type="vtype1" route="r1to10" depart="0" />
    <vehicle id="vid#188#1#10" type="vtype1" route="r1to10" depart="0" />
    <vehicle id="vid#189#1#10" type="vtype1" route="r1to10" depart="0" />
    <vehicle id="vid#190#1#10" type="vtype1" route="r1to10" depart="0" />
    <vehicle id="vid#191#1#10" type="vtype1" route="r1to10" depart="0" />
    <vehicle id="vid#192#1#10" type="vtype1" route="r1to10" depart="0" />
    <vehicle id="vid#193#1#10" type="vtype1" route="r1to10" depart="0" />
    <vehicle id="vid#194#1#10" type="vtype1" route="r1to10" depart="0" />
    <vehicle id="vid#195#1#10" type="vtype1" route="r1to10" depart="0" />
    <vehicle id="vid#196#1#10" type="vtype1" route="r1to10" depart="0" />
    <vehicle id="vid#197#1#10" type="vtype1" route="r1to10" depart="0" />
    <vehicle id="vid#198#1#10" type="vtype1" route="r1to10" depart="0" />
    <vehicle id="vid#199#1#10" type="vtype1" route="r1to10" depart="0" />
    <vehicle id="vid#200#1#10" type="vtype1" route="r1to10" depart="0" />
    <vehicle id="vid#201#1#10" type="vtype1" route="r1to10" depart="0" />
    <vehicle id="vid#202#1#10" type="vtype1" route="r1to10" depart="0" />
    <vehicle id="vid#203#1#10" type="vtype1" route="r1to10" depart="0" />
    <vehicle id="vid#204#1#10" type="vtype1" route="r1to10" depart="0" />
    <vehicle id="vid#205#1#10" type="vtype1" route="r1to10" depart="0" />
    <vehicle id="vid#206#1#10" type="vtype1" route="r1to10" depart="0" />
    <vehicle id="vid#207#1#10" type="vtype1" route="r1to10" depart="0" />
    <vehicle id="vid#208#1#10" type="vtype1" route="r1to10" depart="0" />
    <vehicle id="vid#209#1#10" type="vtype1" route="r1to10" depart="0" />
    <vehicle id="vid#210#1#10" type="vtype1" route="r1to10" depart="0" />
    <vehicle id="vid#211#1#10" type="vtype1" route="r1to10" depart="0" />
    <vehicle id="vid#212#1#10" type="vtype1" route="r1to10" depart="0" />
    <vehicle id="vid#213#1#10" type="vtype1" route="r1to10" depart="0" />
    <vehicle id="vid#214#1#10" type="vtype1" route="r1to10" depart="0" />
    <vehicle id="vid#215#1#10" type="vtype1" route="r1to10" depart="0" />
    <vehicle id="vid#216#1#10" type="vtype1" route="r1to10" depart="0" />
    <vehicle id="vid#217#1#10" type="vtype1" route="r1to10" depart="0" />
    <vehicle id="vid#218#1#10" type="vtype1" route="r1to10" depart="0" />
    <vehicle id="vid#219#1#10" type="vtype1" route="r1to10" depart="0" />
    <vehicle id="vid#220#1#10" type="vtype1" route="r1to10" depart="0" />
    <vehicle id="vid#221#1#10" type="vtype1" route="r1to10" depart="0" />
    <vehicle id="vid#222#1#10" type="vtype1" route="r1to10" depart="0" />
    <vehicle id="vid#223#1#10" type="vtype1" route="r1to10" depart="0" />
    <vehicle id="vid#224#1#10" type="vtype1" route="r1to10" depart="0" />
    <vehicle id="vid#225#1#10" type="vtype1" route="r1to10" depart="0" />
    <vehicle id="vid#226#1#10" type="vtype1" route="r1to10" depart="0" />
    <vehicle id="vid#227#1#10" type="vtype1" route="r1to10" depart="0" />
    <vehicle id="vid#228#1#10" type="vtype1" route="r1to10" depart="0" />
    <vehicle id="vid#229#1#10" type="vtype1" route="r1to10" depart="0" />
    <vehicle id="vid#230#1#10" type="vtype1" route="r1to10" depart="0" />
    <vehicle id="vid#231#1#10" type="vtype1" route="r1to10" depart="0" />
    <vehicle id="vid#232#1#10" type="vtype1" route="r1to10" depart="0" />
    <vehicle id="vid#233#1#10" type="vtype1" route="r1to10" depart="0" />
    <vehicle id="vid#234#1#10" type="vtype1" route="r1to10" depart="0" />
    <vehicle id="vid#235#1#10" type="vtype1" route="r1to10" depart="0" />
    <vehicle id="vid#236#1#10" type="vtype1" route="r1to10" depart="0" />
    <vehicle id="vid#237#1#10" type="vtype1" route="r1to10" depart="0" />
    <vehicle id="vid#238#1#10" type="vtype1" route="r1to10" depart="0" />
    <vehicle id="vid#239#1#10" type="vtype1" route="r1to10" depart="0" />
    <vehicle id="vid#240#1#10" type="vtype1" route="r1to10" depart="0" />
    <vehicle id="vid#241#1#10" type="vtype1" route="r1to10" depart="0" />
    <vehicle id="vid#242#1#10" type="vtype1" route="r1to10" depart="0" />
    <vehicle id="vid#243#1#10" type="vtype1" route="r1to10" depart="0" />
    <vehicle id="vid#244#1#10" type="vtype1" route="r1to10" depart="0" />
    <vehicle id="vid#245#1#10" type="vtype1" route="r1to10" depart="0" />
    <vehicle id="vid#246#1#10" type="vtype1" route="r1to10" depart="0" />
    <vehicle id="vid#247#1#10" type="vtype1" route="r1to10" depart="0" />
    <vehicle id="vid#248#1#10" type="vtype1" route="r1to10" depart="0" />
    <vehicle id="vid#249#1#10" type="vtype1" route="r1to10" depart="0" />
    <vehicle id="vid#250#1#10" type="vtype1" route="r1to10" depart="0" />
    <vehicle id="vid#251#1#10" type="vtype1" route="r1to10" depart="0" />
    <vehicle id="vid#252#1#10" type="vtype1" route="r1to10" depart="0" />
    <vehicle id="vid#253#1#10" type="vtype1" route="r1to10" depart="0" />
    <vehicle id="vid#254#1#10" type="vtype1" route="r1to10" depart="0" />
    <vehicle id="vid#255#1#10" type="vtype1" route="r1to10" depart="0" />
    <vehicle id="vid#256#1#10" type="vtype1" route="r1to10" depart="0" />
    <vehicle id="vid#257#1#10" type="vtype1" route="r1to10" depart="0" />
    <vehicle id="vid#258#1#10" type="vtype1" route="r1to10" depart="0" />
    <vehicle id="vid#259#1#10" type="vtype1" route="r1to10" depart="0" />
    <vehicle id="vid#260#1#10" type="vtype1" route="r1to10" depart="0" />
    <vehicle id="vid#261#1#10" type="vtype1" route="r1to10" depart="0" />
    <vehicle id="vid#262#1#10" type="vtype1" route="r1to10" depart="0" />
    <vehicle id="vid#263#1#10" type="vtype1" route="r1to10" depart="0" />
    <vehicle id="vid#264#1#10" type="vtype1" route="r1to10" depart="0" />
    <vehicle id="vid#265#1#10" type="vtype1" route="r1to10" depart="0" />
    <vehicle id="vid#266#1#10" type="vtype1" route="r1to10" depart="0" />
    <vehicle id="vid#267#1#10" type="vtype1" route="r1to10" depart="0" />
    <vehicle id="vid#268#1#10" type="vtype1" route="r1to10" depart="0" />
    <vehicle id="vid#269#1#10" type="vtype1" route="r1to10" depart="0" />
    <vehicle id="vid#270#1#10" type="vtype1" route="r1to10" depart="0" />
    <vehicle id="vid#271#1#10" type="vtype1" route="r1to10" depart="0" />
    <vehicle id="vid#272#1#10" type="vtype1" route="r1to10" depart="0" />
    <vehicle id="vid#273#1#10" type="vtype1" route="r1to10" depart="0" />
    <vehicle id="vid#274#1#10" type="vtype1" route="r1to10" depart="0" />
    <vehicle id="vid#275#1#10" type="vtype1" route="r1to10" depart="0" />
    <vehicle id="vid#276#1#10" type="vtype1" route="r1to10" depart="0" />
    <vehicle id="vid#277#1#10" type="vtype1" route="r1to10" depart="0" />
    <vehicle id="vid#278#1#10" type="vtype1" route="r1to10" depart="0" />
    <vehicle id="vid#279#1#10" type="vtype1" route="r1to10" depart="0" />
    <vehicle id="vid#280#1#10" type="vtype1" route="r1to10" depart="0" />
    <vehicle id="vid#281#1#10" type="vtype1" route="r1to10" depart="0" />
    <vehicle id="vid#282#1#10" type="vtype1" route="r1to10" depart="0" />
    <vehicle id="vid#283#1#10" type="vtype1" route="r1to10" depart="0" />
    <vehicle id="vid#284#1#10" type="vtype1" route="r1to10" depart="0" />
    <vehicle id="vid#285#1#10" type="vtype1" route="r1to10" depart="0" />
    <vehicle id="vid#286#1#10" type="vtype1" route="r1to10" depart="0" />
    <vehicle id="vid#287#1#10" type="vtype1" route="r1to10" depart="0" />
    <vehicle id="vid#288#1#10" type="vtype1" route="r1to10" depart="0" />
    <vehicle id="vid#289#1#10" type="vtype1" route="r1to10" depart="0" />
    <vehicle id="vid#290#1#10" type="vtype1" route="r1to10" depart="0" />
    <vehicle id="vid#291#1#10" type="vtype1" route="r1to10" depart="0" />
    <vehicle id="vid#292#1#10" type="vtype1" route="r1to10" depart="0" />
    <vehicle id="vid#293#1#10" type="vtype1" route="r1to10" depart="0" />
    <vehicle id="vid#294#1#10" type="vtype1" route="r1to10" depart="0" />
    <vehicle id="vid#295#1#10" type="vtype1" route="r1to10" depart="0" />
    <vehicle id="vid#296#1#10" type="vtype1" route="r1to10" depart="0" />
    <vehicle id="vid#297#1#10" type="vtype1" route="r1to10" depart="0" />
    <vehicle id="vid#298#1#10" type="vtype1" route="r1to10" depart="0" />
    <vehicle id="vid#299#1#10" type="vtype1" route="r1to10" depart="0" />
    <vehicle id="vid#300#1#10" type="vtype1" route="r1to10" depart="0" />
    <vehicle id="vid#301#1#10" type="vtype1" route="r1to10" depart="0" />
    <vehicle id="vid#302#1#10" type="vtype1" route="r1to10" depart="0" />
    <vehicle id="vid#303#1#10" type="vtype1" route="r1to10" depart="0" />
    <vehicle id="vid#304#1#10" type="vtype1" route="r1to10" depart="0" />
    <vehicle id="vid#305#1#10" type="vtype1" route="r1to10" depart="0" />
    <vehicle id="vid#306#1#10" type="vtype1" route="r1to10" depart="0" />
    <vehicle id="vid#307#1#10" type="vtype1" route="r1to10" depart="0" />
    <vehicle id="vid#308#1#10" type="vtype1" route="r1to10" depart="0" />
    <vehicle id="vid#309#1#10" type="vtype1" route="r1to10" depart="0" />
    <vehicle id="vid#310#1#10" type="vtype1" route="r1to10" depart="0" />
    <vehicle id="vid#311#1#10" type="vtype1" route="r1to10" depart="0" />
    <vehicle id="vid#312#1#10" type="vtype1" route="r1to10" depart="0" />
    <vehicle id="vid#313#1#10" type="vtype1" route="r1to10" depart="0" />
    <vehicle id="vid#314#1#10" type="vtype1" route="r1to10" depart="0" />
    <vehicle id="vid#315#1#10" type="vtype1" route="r1to10" depart="0" />
    <vehicle id="vid#316#1#10" type="vtype1" route="r1to10" depart="0" />
    <vehicle id="vid#317#1#10" type="vtype1" route="r1to10" depart="0" />
    <vehicle id="vid#318#1#10" type="vtype1" route="r1to10" depart="0" />
    <vehicle id="vid#319#1#10" type="vtype1" route="r1to10" depart="0" />
    <vehicle id="vid#320#1#10" type="vtype1" route="r1to10" depart="0" />
    <vehicle id="vid#321#1#10" type="vtype1" route="r1to10" depart="0" />
    <vehicle id="vid#322#1#10" type="vtype1" route="r1to10" depart="0" />
    <vehicle id="vid#323#1#10" type="vtype1" route="r1to10" depart="0" />
    <vehicle id="vid#324#1#10" type="vtype1" route="r1to10" depart="0" />
    <vehicle id="vid#325#1#10" type="vtype1" route="r1to10" depart="0" />
    <vehicle id="vid#326#1#10" type="vtype1" route="r1to10" depart="0" />
    <vehicle id="vid#327#1#10" type="vtype1" route="r1to10" depart="0" />
    <vehicle id="vid#328#1#10" type="vtype1" route="r1to10" depart="0" />
    <vehicle id="vid#329#1#10" type="vtype1" route="r1to10" depart="0" />
    <vehicle id="vid#330#1#10" type="vtype1" route="r1to10" depart="0" />
    <vehicle id="vid#331#1#10" type="vtype1" route="r1to10" depart="0" />
    <vehicle id="vid#332#1#10" type="vtype1" route="r1to10" depart="0" />
    <vehicle id="vid#333#1#10" type="vtype1" route="r1to10" depart="0" />
    <vehicle id="vid#334#1#10" type="vtype1" route="r1to10" depart="0" />
    <vehicle id="vid#335#1#10" type="vtype1" route="r1to10" depart="0" />
    <vehicle id="vid#336#1#10" type="vtype1" route="r1to10" depart="0" />
    <vehicle id="vid#337#1#10" type="vtype1" route="r1to10" depart="0" />
    <vehicle id="vid#338#1#10" type="vtype1" route="r1to10" depart="0" />
    <vehicle id="vid#339#1#10" type="vtype1" route="r1to10" depart="0" />
    <vehicle id="vid#340#1#10" type="vtype1" route="r1to10" depart="0" />
    <vehicle id="vid#341#1#10" type="vtype1" route="r1to10" depart="0" />
    <vehicle id="vid#342#1#10" type="vtype1" route="r1to10" depart="0" />
    <vehicle id="vid#343#1#10" type="vtype1" route="r1to10" depart="0" />
    <vehicle id="vid#344#1#10" type="vtype1" route="r1to10" depart="0" />
    <vehicle id="vid#345#1#10" type="vtype1" route="r1to10" depart="0" />
    <vehicle id="vid#346#1#10" type="vtype1" route="r1to10" depart="0" />
    <vehicle id="vid#347#1#10" type="vtype1" route="r1to10" depart="0" />
    <vehicle id="vid#348#1#10" type="vtype1" route="r1to10" depart="0" />
    <vehicle id="vid#349#1#10" type="vtype1" route="r1to10" depart="0" />
    <vehicle id="vid#350#1#10" type="vtype1" route="r1to10" depart="0" />
    <vehicle id="vid#351#1#10" type="vtype1" route="r1to10" depart="0" />
    <vehicle id="vid#352#1#10" type="vtype1" route="r1to10" depart="0" />
    <vehicle id="vid#353#1#10" type="vtype1" route="r1to10" depart="0" />
    <vehicle id="vid#354#1#10" type="vtype1" route="r1to10" depart="0" />
    <vehicle id="vid#355#1#10" type="vtype1" route="r1to10" depart="0" />
    <vehicle id="vid#356#1#10" type="vtype1" route="r1to10" depart="0" />
    <vehicle id="vid#357#1#10" type="vtype1" route="r1to10" depart="0" />
    <vehicle id="vid#358#1#10" type="vtype1" route="r1to10" depart="0" />
    <vehicle id="vid#359#1#10" type="vtype1" route="r1to10" depart="0" />
    <vehicle id="vid#360#1#10" type="vtype1" route="r1to10" depart="0" />
    <vehicle id="vid#361#1#10" type="vtype1" route="r1to10" depart="0" />
    <vehicle id="vid#362#1#10" type="vtype1" route="r1to10" depart="0" />
    <vehicle id="vid#363#1#10" type="vtype1" route="r1to10" depart="0" />
    <vehicle id="vid#364#1#10" type="vtype1" route="r1to10" depart="0" />
    <vehicle id="vid#365#1#10" type="vtype1" route="r1to10" depart="0" />
    <vehicle id="vid#366#1#10" type="vtype1" route="r1to10" depart="0" />
    <vehicle id="vid#367#1#10" type="vtype1" route="r1to10" depart="0" />
    <vehicle id="vid#368#1#10" type="vtype1" route="r1to10" depart="0" />
    <vehicle id="vid#369#1#10" type="vtype1" route="r1to10" depart="0" />
    <vehicle id="vid#370#1#10" type="vtype1" route="r1to10" depart="0" />
    <vehicle id="vid#371#1#10" type="vtype1" route="r1to10" depart="0" />
    <vehicle id="vid#372#1#10" type="vtype1" route="r1to10" depart="0" />
    <vehicle id="vid#373#1#10" type="vtype1" route="r1to10" depart="0" />