<routes>
        <vType id="v0" accel="0.8" decel="4.5" sigma="0.5" length="5" minGap="2.5" maxSpeed="16.67" guiShape="passenger"/>
        <vType id="v1" accel="0.8" decel="4.5" sigma="0.5" length="5" minGap="2.5" maxSpeed="16.67" guiShape="passenger"/>
        <route id="r0" edges="1to4 4to7 7to8 " />
        <route id="r1" edges="1to4 4to7 7to9 " />
        <route id="r2" edges="1to4 4to7 7to10 " />
        <route id="r3" edges="2to5 5to8 " />
        <route id="r4" edges="2to5 5to8 8to9 " />
        <route id="r5" edges="2to5 5to8 8to10 " />
        <route id="r6" edges="3to6 6to8 " />
        <route id="r7" edges="3to6 6to9 " />
        <route id="r8" edges="3to6 6to9 9to10 " />
    <vehicle id="right_0" type="v1" route="r0" depart="1" />
    <vehicle id="right_1" type="v1" route="r1" depart="1" />
    <vehicle id="right_2" type="v1" route="r2" depart="1" />
    <vehicle id="right_3" type="v1" route="r3" depart="1" />
    <vehicle id="right_4" type="v1" route="r4" depart="1" />
    <vehicle id="right_5" type="v1" route="r5" depart="1" />
    <vehicle id="right_6" type="v1" route="r6" depart="1" />
    <vehicle id="right_7" type="v1" route="r7" depart="1" />
    <vehicle id="right_8" type="v1" route="r8" depart="1" />
    <vehicle id="right_9" type="v1" route="r0" depart="7" />
    <vehicle id="right_10" type="v1" route="r1" depart="7" />
    <vehicle id="right_11" type="v1" route="r2" depart="7" />
    <vehicle id="right_12" type="v1" route="r3" depart="7" />
    <vehicle id="right_13" type="v1" route="r4" depart="7" />
    <vehicle id="right_14" type="v1" route="r5" depart="7" />
    <vehicle id="right_15" type="v1" route="r6" depart="7" />
    <vehicle id="right_16" type="v1" route="r7" depart="7" />
    <vehicle id="right_17" type="v1" route="r8" depart="7" />
    <vehicle id="right_18" type="v1" route="r0" depart="9" />
    <vehicle id="right_19" type="v1" route="r1" depart="9" />
    <vehicle id="right_20" type="v1" route="r2" depart="9" />
    <vehicle id="right_21" type="v1" route="r3" depart="9" />
    <vehicle id="right_22" type="v1" route="r4" depart="9" />
    <vehicle id="right_23" type="v1" route="r5" depart="9" />
    <vehicle id="right_24" type="v1" route="r6" depart="9" />
    <vehicle id="right_25" type="v1" route="r7" depart="9" />
    <vehicle id="right_26" type="v1" route="r8" depart="9" />
    <vehicle id="right_27" type="v1" route="r0" depart="12" />
    <vehicle id="right_28" type="v1" route="r1" depart="12" />
    <vehicle id="right_29" type="v1" route="r2" depart="12" />
    <vehicle id="right_30" type="v1" route="r3" depart="12" />
    <vehicle id="right_31" type="v1" route="r4" depart="12" />
    <vehicle id="right_32" type="v1" route="r5" depart="12" />
    <vehicle id="right_33" type="v1" route="r6" depart="12" />
    <vehicle id="right_34" type="v1" route="r7" depart="12" />
    <vehicle id="right_35" type="v1" route="r8" depart="12" />
    <vehicle id="right_36" type="v1" route="r0" depart="19" />
    <vehicle id="right_37" type="v1" route="r1" depart="19" />
    <vehicle id="right_38" type="v1" route="r2" depart="19" />
    <vehicle id="right_39" type="v1" route="r3" depart="19" />
    <vehicle id="right_40" type="v1" route="r4" depart="19" />
    <vehicle id="right_41" type="v1" route="r5" depart="19" />
    <vehicle id="right_42" type="v1" route="r6" depart="19" />
    <vehicle id="right_43" type="v1" route="r7" depart="19" />
    <vehicle id="right_44" type="v1" route="r8" depart="19" />
    <vehicle id="right_45" type="v1" route="r0" depart="26" />
    <vehicle id="right_46" type="v1" route="r1" depart="26" />
    <vehicle id="right_47" type="v1" route="r2" depart="26" />
    <vehicle id="right_48" type="v1" route="r3" depart="26" />
    <vehicle id="right_49" type="v1" route="r4" depart="26" />
    <vehicle id="right_50" type="v1" route="r5" depart="26" />
    <vehicle id="right_51" type="v1" route="r6" depart="26" />
    <vehicle id="right_52" type="v1" route="r7" depart="26" />
    <vehicle id="right_53" type="v1" route="r8" depart="26" />
    <vehicle id="right_54" type="v1" route="r0" depart="27" />
    <vehicle id="right_55" type="v1" route="r1" depart="27" />
    <vehicle id="right_56" type="v1" route="r2" depart="27" />
    <vehicle id="right_57" type="v1" route="r3" depart="27" />
    <vehicle id="right_58" type="v1" route="r4" depart="27" />
    <vehicle id="right_59" type="v1" route="r5" depart="27" />
    <vehicle id="right_60" type="v1" route="r6" depart="27" />
    <vehicle id="right_61" type="v1" route="r7" depart="27" />
    <vehicle id="right_62" type="v1" route="r8" depart="27" />
    <vehicle id="right_63" type="v1" route="r0" depart="41" />
    <vehicle id="right_64" type="v1" route="r1" depart="41" />
    <vehicle id="right_65" type="v1" route="r2" depart="41" />
    <vehicle id="right_66" type="v1" route="r3" depart="41" />
    <vehicle id="right_67" type="v1" route="r4" depart="41" />
    <vehicle id="right_68" type="v1" route="r5" depart="41" />
    <vehicle id="right_69" type="v1" route="r6" depart="41" />
    <vehicle id="right_70" type="v1" route="r7" depart="41" />
    <vehicle id="right_71" type="v1" route="r8" depart="41" />
    <vehicle id="right_72" type="v1" route="r0" depart="44" />
    <vehicle id="right_73" type="v1" route="r1" depart="44" />
    <vehicle id="right_74" type="v1" route="r2" depart="44" />
    <vehicle id="right_75" type="v1" route="r3" depart="44" />
    <vehicle id="right_76" type="v1" route="r4" depart="44" />
    <vehicle id="right_77" type="v1" route="r5" depart="44" />
    <vehicle id="right_78" type="v1" route="r6" depart="44" />
    <vehicle id="right_79" type="v1" route="r7" depart="44" />
    <vehicle id="right_80" type="v1" route="r8" depart="44" />
    <vehicle id="right_81" type="v1" route="r0" depart="46" />
    <vehicle id="right_82" type="v1" route="r1" depart="46" />
    <vehicle id="right_83" type="v1" route="r2" depart="46" />
    <vehicle id="right_84" type="v1" route="r3" depart="46" />
    <vehicle id="right_85" type="v1" route="r4" depart="46" />
    <vehicle id="right_86" type="v1" route="r5" depart="46" />
    <vehicle id="right_87" type="v1" route="r6" depart="46" />
    <vehicle id="right_88" type="v1" route="r7" depart="46" />
    <vehicle id="right_89" type="v1" route="r8" depart="46" />
    <vehicle id="right_90" type="v1" route="r0" depart="67" />
    <vehicle id="right_91" type="v1" route="r1" depart="67" />
    <vehicle id="right_92" type="v1" route="r2" depart="67" />
    <vehicle id="right_93" type="v1" route="r3" depart="67" />
    <vehicle id="right_94" type="v1" route="r4" depart="67" />
    <vehicle id="right_95" type="v1" route="r5" depart="67" />
    <vehicle id="right_96" type="v1" route="r6" depart="67" />
    <vehicle id="right_97" type="v1" route="r7" depart="67" />
    <vehicle id="right_98" type="v1" route="r8" depart="67" />
    <vehicle id="right_99" type="v1" route="r0" depart="88" />
    <vehicle id="right_100" type="v1" route="r1" depart="88" />
    <vehicle id="right_101" type="v1" route="r2" depart="88" />
    <vehicle id="right_102" type="v1" route="r3" depart="88" />
    <vehicle id="right_103" type="v1" route="r4" depart="88" />
    <vehicle id="right_104" type="v1" route="r5" depart="88" />
    <vehicle id="right_105" type="v1" route="r6" depart="88" />
    <vehicle id="right_106" type="v1" route="r7" depart="88" />
    <vehicle id="right_107" type="v1" route="r8" depart="88" />
    <vehicle id="right_108" type="v1" route="r0" depart="89" />
    <vehicle id="right_109" type="v1" route="r1" depart="89" />
    <vehicle id="right_110" type="v1" route="r2" depart="89" />
    <vehicle id="right_111" type="v1" route="r3" depart="89" />
    <vehicle id="right_112" type="v1" route="r4" depart="89" />
    <vehicle id="right_113" type="v1" route="r5" depart="89" />
    <vehicle id="right_114" type="v1" route="r6" depart="89" />
    <vehicle id="right_115" type="v1" route="r7" depart="89" />
    <vehicle id="right_116" type="v1" route="r8" depart="89" />
    <vehicle id="right_117" type="v1" route="r0" depart="90" />
    <vehicle id="right_118" type="v1" route="r1" depart="90" />
    <vehicle id="right_119" type="v1" route="r2" depart="90" />
    <vehicle id="right_120" type="v1" route="r3" depart="90" />
    <vehicle id="right_121" type="v1" route="r4" depart="90" />
    <vehicle id="right_122" type="v1" route="r5" depart="90" />
    <vehicle id="right_123" type="v1" route="r6" depart="90" />
    <vehicle id="right_124" type="v1" route="r7" depart="90" />
    <vehicle id="right_125" type="v1" route="r8" depart="90" />
    <vehicle id="right_126" type="v1" route="r0" depart="94" />
    <vehicle id="right_127" type="v1" route="r1" depart="94" />
    <vehicle id="right_128" type="v1" route="r2" depart="94" />
    <vehicle id="right_129" type="v1" route="r3" depart="94" />
    <vehicle id="right_130" type="v1" route="r4" depart="94" />
    <vehicle id="right_131" type="v1" route="r5" depart="94" />
    <vehicle id="right_132" type="v1" route="r6" depart="94" />
    <vehicle id="right_133" type="v1" route="r7" depart="94" />
    <vehicle id="right_134" type="v1" route="r8" depart="94" />
    <vehicle id="right_135" type="v1" route="r0" depart="100" />
    <vehicle id="right_136" type="v1" route="r1" depart="100" />
    <vehicle id="right_137" type="v1" route="r2" depart="100" />
    <vehicle id="right_138" type="v1" route="r3" depart="100" />
    <vehicle id="right_139" type="v1" route="r4" depart="100" />
    <vehicle id="right_140" type="v1" route="r5" depart="100" />
    <vehicle id="right_141" type="v1" route="r6" depart="100" />
    <vehicle id="right_142" type="v1" route="r7" depart="100" />
    <vehicle id="right_143" type="v1" route="r8" depart="100" />
    <vehicle id="right_144" type="v1" route="r0" depart="124" />
    <vehicle id="right_145" type="v1" route="r1" depart="124" />
    <vehicle id="right_146" type="v1" route="r2" depart="124" />
    <vehicle id="right_147" type="v1" route="r3" depart="124" />
    <vehicle id="right_148" type="v1" route="r4" depart="124" />
    <vehicle id="right_149" type="v1" route="r5" depart="124" />
    <vehicle id="right_150" type="v1" route="r6" depart="124" />
    <vehicle id="right_151" type="v1" route="r7" depart="124" />
    <vehicle id="right_152" type="v1" route="r8" depart="124" />
    <vehicle id="right_153" type="v1" route="r0" depart="126" />
    <vehicle id="right_154" type="v1" route="r1" depart="126" />
    <vehicle id="right_155" type="v1" route="r2" depart="126" />
    <vehicle id="right_156" type="v1" route="r3" depart="126" />
    <vehicle id="right_157" type="v1" route="r4" depart="126" />
    <vehicle id="right_158" type="v1" route="r5" depart="126" />
    <vehicle id="right_159" type="v1" route="r6" depart="126" />
    <vehicle id="right_160" type="v1" route="r7" depart="126" />
    <vehicle id="right_161" type="v1" route="r8" depart="126" />
    <vehicle id="right_162" type="v1" route="r0" depart="131" />
    <vehicle id="right_163" type="v1" route="r1" depart="131" />
    <vehicle id="right_164" type="v1" route="r2" depart="131" />
    <vehicle id="right_165" type="v1" route="r3" depart="131" />
    <vehicle id="right_166" type="v1" route="r4" depart="131" />
    <vehicle id="right_167" type="v1" route="r5" depart="131" />
    <vehicle id="right_168" type="v1" route="r6" depart="131" />
    <vehicle id="right_169" type="v1" route="r7" depart="131" />
    <vehicle id="right_170" type="v1" route="r8" depart="131" />
    <vehicle id="right_171" type="v1" route="r0" depart="134" />
    <vehicle id="right_172" type="v1" route="r1" depart="134" />
    <vehicle id="right_173" type="v1" route="r2" depart="134" />
    <vehicle id="right_174" type="v1" route="r3" depart="134" />
    <vehicle id="right_175" type="v1" route="r4" depart="134" />
    <vehicle id="right_176" type="v1" route="r5" depart="134" />
    <vehicle id="right_177" type="v1" route="r6" depart="134" />
    <vehicle id="right_178" type="v1" route="r7" depart="134" />
    <vehicle id="right_179" type="v1" route="r8" depart="134" />
    <vehicle id="right_180" type="v1" route="r0" depart="136" />
    <vehicle id="right_181" type="v1" route="r1" depart="136" />
    <vehicle id="right_182" type="v1" route="r2" depart="136" />
    <vehicle id="right_183" type="v1" route="r3" depart="136" />
    <vehicle id="right_184" type="v1" route="r4" depart="136" />
    <vehicle id="right_185" type="v1" route="r5" depart="136" />
    <vehicle id="right_186" type="v1" route="r6" depart="136" />
    <vehicle id="right_187" type="v1" route="r7" depart="136" />
    <vehicle id="right_188" type="v1" route="r8" depart="136" />
    <vehicle id="right_189" type="v1" route="r0" depart="160" />
    <vehicle id="right_190" type="v1" route="r1" depart="160" />
    <vehicle id="right_191" type="v1" route="r2" depart="160" />
    <vehicle id="right_192" type="v1" route="r3" depart="160" />
    <vehicle id="right_193" type="v1" route="r4" depart="160" />
    <vehicle id="right_194" type="v1" route="r5" depart="160" />
    <vehicle id="right_195" type="v1" route="r6" depart="160" />
    <vehicle id="right_196" type="v1" route="r7" depart="160" />
    <vehicle id="right_197" type="v1" route="r8" depart="160" />
    <vehicle id="right_198" type="v1" route="r0" depart="165" />
    <vehicle id="right_199" type="v1" route="r1" depart="165" />
    <vehicle id="right_200" type="v1" route="r2" depart="165" />
    <vehicle id="right_201" type="v1" route="r3" depart="165" />
    <vehicle id="right_202" type="v1" route="r4" depart="165" />
    <vehicle id="right_203" type="v1" route="r5" depart="165" />
    <vehicle id="right_204" type="v1" route="r6" depart="165" />
    <vehicle id="right_205" type="v1" route="r7" depart="165" />
    <vehicle id="right_206" type="v1" route="r8" depart="165" />
    <vehicle id="right_207" type="v1" route="r0" depart="176" />
    <vehicle id="right_208" type="v1" route="r1" depart="176" />
    <vehicle id="right_209" type="v1" route="r2" depart="176" />
    <vehicle id="right_210" type="v1" route="r3" depart="176" />
    <vehicle id="right_211" type="v1" route="r4" depart="176" />
    <vehicle id="right_212" type="v1" route="r5" depart="176" />
    <vehicle id="right_213" type="v1" route="r6" depart="176" />
    <vehicle id="right_214" type="v1" route="r7" depart="176" />
    <vehicle id="right_215" type="v1" route="r8" depart="176" />
    <vehicle id="right_216" type="v1" route="r0" depart="183" />
    <vehicle id="right_217" type="v1" route="r1" depart="183" />
    <vehicle id="right_218" type="v1" route="r2" depart="183" />
    <vehicle id="right_219" type="v1" route="r3" depart="183" />
    <vehicle id="right_220" type="v1" route="r4" depart="183" />
    <vehicle id="right_221" type="v1" route="r5" depart="183" />
    <vehicle id="right_222" type="v1" route="r6" depart="183" />
    <vehicle id="right_223" type="v1" route="r7" depart="183" />
    <vehicle id="right_224" type="v1" route="r8" depart="183" />
    <vehicle id="right_225" type="v1" route="r0" depart="197" />
    <vehicle id="right_226" type="v1" route="r1" depart="197" />
    <vehicle id="right_227" type="v1" route="r2" depart="197" />
    <vehicle id="right_228" type="v1" route="r3" depart="197" />
    <vehicle id="right_229" type="v1" route="r4" depart="197" />
    <vehicle id="right_230" type="v1" route="r5" depart="197" />
    <vehicle id="right_231" type="v1" route="r6" depart="197" />
    <vehicle id="right_232" type="v1" route="r7" depart="197" />
    <vehicle id="right_233" type="v1" route="r8" depart="197" />
    <vehicle id="right_234" type="v1" route="r0" depart="207" />
    <vehicle id="right_235" type="v1" route="r1" depart="207" />
    <vehicle id="right_236" type="v1" route="r2" depart="207" />
    <vehicle id="right_237" type="v1" route="r3" depart="207" />
    <vehicle id="right_238" type="v1" route="r4" depart="207" />
    <vehicle id="right_239" type="v1" route="r5" depart="207" />
    <vehicle id="right_240" type="v1" route="r6" depart="207" />
    <vehicle id="right_241" type="v1" route="r7" depart="207" />
    <vehicle id="right_242" type="v1" route="r8" depart="207" />
    <vehicle id="right_243" type="v1" route="r0" depart="224" />
    <vehicle id="right_244" type="v1" route="r1" depart="224" />
    <vehicle id="right_245" type="v1" route="r2" depart="224" />
    <vehicle id="right_246" type="v1" route="r3" depart="224" />
    <vehicle id="right_247" type="v1" route="r4" depart="224" />
    <vehicle id="right_248" type="v1" route="r5" depart="224" />
    <vehicle id="right_249" type="v1" route="r6" depart="224" />
    <vehicle id="right_250" type="v1" route="r7" depart="224" />
    <vehicle id="right_251" type="v1" route="r8" depart="224" />
    <vehicle id="right_252" type="v1" route="r0" depart="230" />
    <vehicle id="right_253" type="v1" route="r1" depart="230" />
    <vehicle id="right_254" type="v1" route="r2" depart="230" />
    <vehicle id="right_255" type="v1" route="r3" depart="230" />
    <vehicle id="right_256" type="v1" route="r4" depart="230" />
    <vehicle id="right_257" type="v1" route="r5" depart="230" />
    <vehicle id="right_258" type="v1" route="r6" depart="230" />
    <vehicle id="right_259" type="v1" route="r7" depart="230" />
    <vehicle id="right_260" type="v1" route="r8" depart="230" />
    <vehicle id="right_261" type="v1" route="r0" depart="252" />
    <vehicle id="right_262" type="v1" route="r1" depart="252" />
    <vehicle id="right_263" type="v1" route="r2" depart="252" />
    <vehicle id="right_264" type="v1" route="r3" depart="252" />
    <vehicle id="right_265" type="v1" route="r4" depart="252" />
    <vehicle id="right_266" type="v1" route="r5" depart="252" />
    <vehicle id="right_267" type="v1" route="r6" depart="252" />
    <vehicle id="right_268" type="v1" route="r7" depart="252" />
    <vehicle id="right_269" type="v1" route="r8" depart="252" />
    <vehicle id="right_270" type="v1" route="r0" depart="256" />
    <vehicle id="right_271" type="v1" route="r1" depart="256" />
    <vehicle id="right_272" type="v1" route="r2" depart="256" />
    <vehicle id="right_273" type="v1" route="r3" depart="256" />
    <vehicle id="right_274" type="v1" route="r4" depart="256" />
    <vehicle id="right_275" type="v1" route="r5" depart="256" />
    <vehicle id="right_276" type="v1" route="r6" depart="256" />
    <vehicle id="right_277" type="v1" route="r7" depart="256" />
    <vehicle id="right_278" type="v1" route="r8" depart="256" />
    <vehicle id="right_279" type="v1" route="r0" depart="269" />
    <vehicle id="right_280" type="v1" route="r1" depart="269" />
    <vehicle id="right_281" type="v1" route="r2" depart="269" />
    <vehicle id="right_282" type="v1" route="r3" depart="269" />
    <vehicle id="right_283" type="v1" route="r4" depart="269" />
    <vehicle id="right_284" type="v1" route="r5" depart="269" />
    <vehicle id="right_285" type="v1" route="r6" depart="269" />
    <vehicle id="right_286" type="v1" route="r7" depart="269" />
    <vehicle id="right_287" type="v1" route="r8" depart="269" />
    <vehicle id="right_288" type="v1" route="r0" depart="276" />
    <vehicle id="right_289" type="v1" route="r1" depart="276" />
    <vehicle id="right_290" type="v1" route="r2" depart="276" />
    <vehicle id="right_291" type="v1" route="r3" depart="276" />
    <vehicle id="right_292" type="v1" route="r4" depart="276" />
    <vehicle id="right_293" type="v1" route="r5" depart="276" />
    <vehicle id="right_294" type="v1" route="r6" depart="276" />
    <vehicle id="right_295" type="v1" route="r7" depart="276" />
    <vehicle id="right_296" type="v1" route="r8" depart="276" />
    <vehicle id="right_297" type="v1" route="r0" depart="287" />
    <vehicle id="right_298" type="v1" route="r1" depart="287" />
    <vehicle id="right_299" type="v1" route="r2" depart="287" />
    <vehicle id="right_300" type="v1" route="r3" depart="287" />
    <vehicle id="right_301" type="v1" route="r4" depart="287" />
    <vehicle id="right_302" type="v1" route="r5" depart="287" />
    <vehicle id="right_303" type="v1" route="r6" depart="287" />
    <vehicle id="right_304" type="v1" route="r7" depart="287" />
    <vehicle id="right_305" type="v1" route="r8" depart="287" />
    <vehicle id="right_306" type="v1" route="r0" depart="290" />
    <vehicle id="right_307" type="v1" route="r1" depart="290" />
    <vehicle id="right_308" type="v1" route="r2" depart="290" />
    <vehicle id="right_309" type="v1" route="r3" depart="290" />
    <vehicle id="right_310" type="v1" route="r4" depart="290" />
    <vehicle id="right_311" type="v1" route="r5" depart="290" />
    <vehicle id="right_312" type="v1" route="r6" depart="290" />
    <vehicle id="right_313" type="v1" route="r7" depart="290" />
    <vehicle id="right_314" type="v1" route="r8" depart="290" />
    <vehicle id="right_315" type="v1" route="r0" depart="297" />
    <vehicle id="right_316" type="v1" route="r1" depart="297" />
    <vehicle id="right_317" type="v1" route="r2" depart="297" />
    <vehicle id="right_318" type="v1" route="r3" depart="297" />
    <vehicle id="right_319" type="v1" route="r4" depart="297" />
    <vehicle id="right_320" type="v1" route="r5" depart="297" />
    <vehicle id="right_321" type="v1" route="r6" depart="297" />
    <vehicle id="right_322" type="v1" route="r7" depart="297" />
    <vehicle id="right_323" type="v1" route="r8" depart="297" />
    <vehicle id="right_324" type="v1" route="r0" depart="298" />
    <vehicle id="right_325" type="v1" route="r1" depart="298" />
    <vehicle id="right_326" type="v1" route="r2" depart="298" />
    <vehicle id="right_327" type="v1" route="r3" depart="298" />
    <vehicle id="right_328" type="v1" route="r4" depart="298" />
    <vehicle id="right_329" type="v1" route="r5" depart="298" />
    <vehicle id="right_330" type="v1" route="r6" depart="298" />
    <vehicle id="right_331" type="v1" route="r7" depart="298" />
    <vehicle id="right_332" type="v1" route="r8" depart="298" />
    <vehicle id="right_333" type="v1" route="r0" depart="313" />
    <vehicle id="right_334" type="v1" route="r1" depart="313" />
    <vehicle id="right_335" type="v1" route="r2" depart="313" />
    <vehicle id="right_336" type="v1" route="r3" depart="313" />
    <vehicle id="right_337" type="v1" route="r4" depart="313" />
    <vehicle id="right_338" type="v1" route="r5" depart="313" />
    <vehicle id="right_339" type="v1" route="r6" depart="313" />
    <vehicle id="right_340" type="v1" route="r7" depart="313" />
    <vehicle id="right_341" type="v1" route="r8" depart="313" />
    <vehicle id="right_342" type="v1" route="r0" depart="324" />
    <vehicle id="right_343" type="v1" route="r1" depart="324" />
    <vehicle id="right_344" type="v1" route="r2" depart="324" />
    <vehicle id="right_345" type="v1" route="r3" depart="324" />
    <vehicle id="right_346" type="v1" route="r4" depart="324" />
    <vehicle id="right_347" type="v1" route="r5" depart="324" />
    <vehicle id="right_348" type="v1" route="r6" depart="324" />
    <vehicle id="right_349" type="v1" route="r7" depart="324" />
    <vehicle id="right_350" type="v1" route="r8" depart="324" />
    <vehicle id="right_351" type="v1" route="r0" depart="333" />
    <vehicle id="right_352" type="v1" route="r1" depart="333" />
    <vehicle id="right_353" type="v1" route="r2" depart="333" />
    <vehicle id="right_354" type="v1" route="r3" depart="333" />
    <vehicle id="right_355" type="v1" route="r4" depart="333" />
    <vehicle id="right_356" type="v1" route="r5" depart="333" />
    <vehicle id="right_357" type="v1" route="r6" depart="333" />
    <vehicle id="right_358" type="v1" route="r7" depart="333" />
    <vehicle id="right_359" type="v1" route="r8" depart="333" />
    <vehicle id="right_360" type="v1" route="r0" depart="342" />
    <vehicle id="right_361" type="v1" route="r1" depart="342" />
    <vehicle id="right_362" type="v1" route="r2" depart="342" />
    <vehicle id="right_363" type="v1" route="r3" depart="342" />
    <vehicle id="right_364" type="v1" route="r4" depart="342" />
    <vehicle id="right_365" type="v1" route="r5" depart="342" />
    <vehicle id="right_366" type="v1" route="r6" depart="342" />
    <vehicle id="right_367" type="v1" route="r7" depart="342" />
    <vehicle id="right_368" type="v1" route="r8" depart="342" />
    <vehicle id="right_369" type="v1" route="r0" depart="358" />
    <vehicle id="right_370" type="v1" route="r1" depart="358" />
    <vehicle id="right_371" type="v1" route="r2" depart="358" />
    <vehicle id="right_372" type="v1" route="r3" depart="358" />
    <vehicle id="right_373" type="v1" route="r4" depart="358" />
    <vehicle id="right_374" type="v1" route="r5" depart="358" />
    <vehicle id="right_375" type="v1" route="r6" depart="358" />
    <vehicle id="right_376" type="v1" route="r7" depart="358" />
    <vehicle id="right_377" type="v1" route="r8" depart="358" />
    <vehicle id="right_378" type="v1" route="r0" depart="368" />
    <vehicle id="right_379" type="v1" route="r1" depart="368" />
    <vehicle id="right_380" type="v1" route="r2" depart="368" />
    <vehicle id="right_381" type="v1" route="r3" depart="368" />
    <vehicle id="right_382" type="v1" route="r4" depart="368" />
    <vehicle id="right_383" type="v1" route="r5" depart="368" />
    <vehicle id="right_384" type="v1" route="r6" depart="368" />
    <vehicle id="right_385" type="v1" route="r7" depart="368" />
    <vehicle id="right_386" type="v1" route="r8" depart="368" />
    <vehicle id="right_387" type="v1" route="r0" depart="375" />
    <vehicle id="right_388" type="v1" route="r1" depart="375" />
    <vehicle id="right_389" type="v1" route="r2" depart="375" />
    <vehicle id="right_390" type="v1" route="r3" depart="375" />
    <vehicle id="right_391" type="v1" route="r4" depart="375" />
    <vehicle id="right_392" type="v1" route="r5" depart="375" />
    <vehicle id="right_393" type="v1" route="r6" depart="375" />
    <vehicle id="right_394" type="v1" route="r7" depart="375" />
    <vehicle id="right_395" type="v1" route="r8" depart="375" />
    <vehicle id="right_396" type="v1" route="r0" depart="394" />
    <vehicle id="right_397" type="v1" route="r1" depart="394" />
    <vehicle id="right_398" type="v1" route="r2" depart="394" />
    <vehicle id="right_399" type="v1" route="r3" depart="394" />
    <vehicle id="right_400" type="v1" route="r4" depart="394" />
    <vehicle id="right_401" type="v1" route="r5" depart="394" />
    <vehicle id="right_402" type="v1" route="r6" depart="394" />
    <vehicle id="right_403" type="v1" route="r7" depart="394" />
    <vehicle id="right_404" type="v1" route="r8" depart="394" />
    <vehicle id="right_405" type="v1" route="r0" depart="406" />
    <vehicle id="right_406" type="v1" route="r1" depart="406" />
    <vehicle id="right_407" type="v1" route="r2" depart="406" />
    <vehicle id="right_408" type="v1" route="r3" depart="406" />
    <vehicle id="right_409" type="v1" route="r4" depart="406" />
    <vehicle id="right_410" type="v1" route="r5" depart="406" />
    <vehicle id="right_411" type="v1" route="r6" depart="406" />
    <vehicle id="right_412" type="v1" route="r7" depart="406" />
    <vehicle id="right_413" type="v1" route="r8" depart="406" />
    <vehicle id="right_414" type="v1" route="r0" depart="415" />
    <vehicle id="right_415" type="v1" route="r1" depart="415" />
    <vehicle id="right_416" type="v1" route="r2" depart="415" />
    <vehicle id="right_417" type="v1" route="r3" depart="415" />
    <vehicle id="right_418" type="v1" route="r4" depart="415" />
    <vehicle id="right_419" type="v1" route="r5" depart="415" />
    <vehicle id="right_420" type="v1" route="r6" depart="415" />
    <vehicle id="right_421" type="v1" route="r7" depart="415" />
    <vehicle id="right_422" type="v1" route="r8" depart="415" />
    <vehicle id="right_423" type="v1" route="r0" depart="419" />
    <vehicle id="right_424" type="v1" route="r1" depart="419" />
    <vehicle id="right_425" type="v1" route="r2" depart="419" />
    <vehicle id="right_426" type="v1" route="r3" depart="419" />
    <vehicle id="right_427" type="v1" route="r4" depart="419" />
    <vehicle id="right_428" type="v1" route="r5" depart="419" />
    <vehicle id="right_429" type="v1" route="r6" depart="419" />
    <vehicle id="right_430" type="v1" route="r7" depart="419" />
    <vehicle id="right_431" type="v1" route="r8" depart="419" />
    <vehicle id="right_432" type="v1" route="r0" depart="427" />
    <vehicle id="right_433" type="v1" route="r1" depart="427" />
    <vehicle id="right_434" type="v1" route="r2" depart="427" />
    <vehicle id="right_435" type="v1" route="r3" depart="427" />
    <vehicle id="right_436" type="v1" route="r4" depart="427" />
    <vehicle id="right_437" type="v1" route="r5" depart="427" />
    <vehicle id="right_438" type="v1" route="r6" depart="427" />
    <vehicle id="right_439" type="v1" route="r7" depart="427" />
    <vehicle id="right_440" type="v1" route="r8" depart="427" />
    <vehicle id="right_441" type="v1" route="r0" depart="430" />
    <vehicle id="right_442" type="v1" route="r1" depart="430" />
    <vehicle id="right_443" type="v1" route="r2" depart="430" />
    <vehicle id="right_444" type="v1" route="r3" depart="430" />
    <vehicle id="right_445" type="v1" route="r4" depart="430" />
    <vehicle id="right_446" type="v1" route="r5" depart="430" />
    <vehicle id="right_447" type="v1" route="r6" depart="430" />
    <vehicle id="right_448" type="v1" route="r7" depart="430" />
    <vehicle id="right_449" type="v1" route="r8" depart="430" />
    <vehicle id="right_450" type="v1" route="r0" depart="435" />
    <vehicle id="right_451" type="v1" route="r1" depart="435" />
    <vehicle id="right_452" type="v1" route="r2" depart="435" />
    <vehicle id="right_453" type="v1" route="r3" depart="435" />
    <vehicle id="right_454" type="v1" route="r4" depart="435" />