<routes>
        <vType id="vtype0" accel="0.8" decel="4.5" sigma="0.5" length="2" minGap="1" maxSpeed="16.67" guiShape="passenger"/>
        <vType id="vtype1" accel="0.8" decel="4.5" sigma="0.5" length="2" minGap="1" maxSpeed="16.67" guiShape="passenger"/>
        <route id="r1to2" edges="1to2 " />
        <route id="r1to3" edges="1to3 " />
        <route id="r1to4" edges="1to4 " />
        <route id="r1to5" edges="1to4 4to5 " />
        <route id="r1to6" edges="1to4 4to6 " />
        <route id="r1to7" edges="1to4 4to7 " />
        <route id="r1to8" edges="1to4 4to7 7to8 " />
        <route id="r1to9" edges="1to4 4to7 7to9 " />
        <route id="r1to10" edges="1to4 4to7 7to10 " />
        <route id="r2to3" edges="2to3 " />
        <route id="r2to4" edges="2to4 " />
        <route id="r2to5" edges="2to5 " />
        <route id="r2to6" edges="2to5 5to6 " />
        <route id="r2to7" edges="2to5 5to7 " />
        <route id="r2to8" edges="2to5 5to8 " />
        <route id="r2to9" edges="2to5 5to8 8to9 " />
        <route id="r2to10" edges="2to5 5to8 8to10 " />
        <route id="r3to4" edges="3to4 " />
        <route id="r3to5" edges="3to5 " />
        <route id="r3to6" edges="3to6 " />
        <route id="r3to7" edges="3to6 6to7 " />
        <route id="r3to8" edges="3to5 5to8 " />
        <route id="r3to9" edges="3to6 6to9 " />
        <route id="r3to10" edges="3to6 6to9 9to10 " />
        <route id="r4to5" edges="4to5 " />
        <route id="r4to6" edges="4to6 " />
        <route id="r4to7" edges="4to7 " />
        <route id="r4to8" edges="4to7 7to8 " />
        <route id="r4to9" edges="4to7 7to9 " />
        <route id="r4to10" edges="4to7 7to10 " />
        <route id="r5to6" edges="5to6 " />
        <route id="r5to7" edges="5to7 " />
        <route id="r5to8" edges="5to8 " />
        <route id="r5to9" edges="5to8 8to9 " />
        <route id="r5to10" edges="5to8 8to10 " />
        <route id="r6to7" edges="6to7 " />
        <route id="r6to8" edges="6to8 " />
        <route id="r6to9" edges="6to9 " />
        <route id="r6to10" edges="6to9 9to10 " />
        <route id="r7to8" edges="7to8 " />
        <route id="r7to9" edges="7to9 " />
        <route id="r7to10" edges="7to10 " />
        <route id="r8to9" edges="8to9 " />
        <route id="r8to10" edges="8to10 " />
        <route id="r9to10" edges="9to10 " />
    <vehicle id="vid#0#2#8" type="vtype1" route="r2to8" depart="0" />
    <vehicle id="vid#1#1#8" type="vtype1" route="r1to8" depart="1" />
    <vehicle id="vid#2#3#10" type="vtype1" route="r3to10" depart="2" />
    <vehicle id="vid#3#3#8" type="vtype1" route="r3to8" depart="3" />
    <vehicle id="vid#4#2#8" type="vtype1" route="r2to8" depart="4" />
    <vehicle id="vid#5#1#9" type="vtype1" route="r1to9" depart="5" />
    <vehicle id="vid#6#1#8" type="vtype1" route="r1to8" depart="6" />
    <vehicle id="vid#7#2#9" type="vtype1" route="r2to9" depart="7" />
    <vehicle id="vid#8#1#9" type="vtype1" route="r1to9" depart="8" />
    <vehicle id="vid#9#3#8" type="vtype1" route="r3to8" depart="9" />
    <vehicle id="vid#10#3#10" type="vtype1" route="r3to10" depart="10" />
    <vehicle id="vid#11#2#8" type="vtype1" route="r2to8" depart="11" />
    <vehicle id="vid#12#3#9" type="vtype1" route="r3to9" depart="12" />
    <vehicle id="vid#13#1#8" type="vtype1" route="r1to8" depart="13" />
    <vehicle id="vid#14#3#9" type="vtype1" route="r3to9" depart="14" />
    <vehicle id="vid#15#3#10" type="vtype1" route="r3to10" depart="15" />
    <vehicle id="vid#16#2#10" type="vtype1" route="r2to10" depart="16" />
    <vehicle id="vid#17#2#9" type="vtype1" route="r2to9" depart="17" />
    <vehicle id="vid#18#3#9" type="vtype1" route="r3to9" depart="18" />
    <vehicle id="vid#19#3#9" type="vtype1" route="r3to9" depart="19" />
    <vehicle id="vid#20#3#8" type="vtype1" route="r3to8" depart="20" />
    <vehicle id="vid#21#1#8" type="vtype1" route="r1to8" depart="21" />
    <vehicle id="vid#22#1#8" type="vtype1" route="r1to8" depart="22" />
    <vehicle id="vid#23#1#8" type="vtype1" route="r1to8" depart="23" />
    <vehicle id="vid#24#2#9" type="vtype1" route="r2to9" depart="24" />
    <vehicle id="vid#25#2#8" type="vtype1" route="r2to8" depart="25" />
    <vehicle id="vid#26#1#10" type="vtype1" route="r1to10" depart="26" />
    <vehicle id="vid#27#2#9" type="vtype1" route="r2to9" depart="27" />
    <vehicle id="vid#28#1#10" type="vtype1" route="r1to10" depart="28" />
    <vehicle id="vid#29#1#9" type="vtype1" route="r1to9" depart="29" />
    <vehicle id="vid#30#3#9" type="vtype1" route="r3to9" depart="30" />
    <vehicle id="vid#31#2#10" type="vtype1" route="r2to10" depart="31" />
    <vehicle id="vid#32#3#10" type="vtype1" route="r3to10" depart="32" />
    <vehicle id="vid#33#1#8" type="vtype1" route="r1to8" depart="33" />
    <vehicle id="vid#34#1#8" type="vtype1" route="r1to8" depart="34" />
    <vehicle id="vid#35#1#10" type="vtype1" route="r1to10" depart="35" />
    <vehicle id="vid#36#3#8" type="vtype1" route="r3to8" depart="36" />
    <vehicle id="vid#37#2#9" type="vtype1" route="r2to9" depart="37" />
    <vehicle id="vid#38#3#9" type="vtype1" route="r3to9" depart="38" />
    <vehicle id="vid#39#1#8" type="vtype1" route="r1to8" depart="39" />
    <vehicle id="vid#40#2#8" type="vtype1" route="r2to8" depart="40" />
    <vehicle id="vid#41#2#10" type="vtype1" route="r2to10" depart="41" />
    <vehicle id="vid#42#2#8" type="vtype1" route="r2to8" depart="42" />
    <vehicle id="vid#43#3#9" type="vtype1" route="r3to9" depart="43" />
    <vehicle id="vid#44#1#8" type="vtype1" route="r1to8" depart="44" />
    <vehicle id="vid#45#1#9" type="vtype1" route="r1to9" depart="45" />
    <vehicle id="vid#46#3#9" type="vtype1" route="r3to9" depart="46" />
    <vehicle id="vid#47#1#9" type="vtype1" route="r1to9" depart="47" />
    <vehicle id="vid#48#3#9" type="vtype1" route="r3to9" depart="48" />
    <vehicle id="vid#49#3#10" type="vtype1" route="r3to10" depart="49" />
    <vehicle id="vid#50#1#10" type="vtype1" route="r1to10" depart="50" />
    <vehicle id="vid#51#3#9" type="vtype1" route="r3to9" depart="51" />
    <vehicle id="vid#52#1#9" type="vtype1" route="r1to9" depart="52" />
    <vehicle id="vid#53#1#9" type="vtype1" route="r1to9" depart="53" />
    <vehicle id="vid#54#2#10" type="vtype1" route="r2to10" depart="54" />
    <vehicle id="vid#55#3#8" type="vtype1" route="r3to8" depart="55" />
    <vehicle id="vid#56#2#8" type="vtype1" route="r2to8" depart="56" />
    <vehicle id="vid#57#3#10" type="vtype1" route="r3to10" depart="57" />
    <vehicle id="vid#58#1#9" type="vtype1" route="r1to9" depart="58" />
    <vehicle id="vid#59#2#8" type="vtype1" route="r2to8" depart="59" />
    <vehicle id="vid#60#3#9" type="vtype1" route="r3to9" depart="60" />
    <vehicle id="vid#61#3#9" type="vtype1" route="r3to9" depart="61" />
    <vehicle id="vid#62#1#8" type="vtype1" route="r1to8" depart="62" />
    <vehicle id="vid#63#1#10" type="vtype1" route="r1to10" depart="63" />
    <vehicle id="vid#64#3#10" type="vtype1" route="r3to10" depart="64" />
    <vehicle id="vid#65#1#8" type="vtype1" route="r1to8" depart="65" />
    <vehicle id="vid#66#3#10" type="vtype1" route="r3to10" depart="66" />
    <vehicle id="vid#67#1#9" type="vtype1" route="r1to9" depart="67" />
    <vehicle id="vid#68#1#10" type="vtype1" route="r1to10" depart="68" />
    <vehicle id="vid#69#3#8" type="vtype1" route="r3to8" depart="69" />
    <vehicle id="vid#70#2#9" type="vtype1" route="r2to9" depart="70" />
    <vehicle id="vid#71#1#10" type="vtype1" route="r1to10" depart="71" />
    <vehicle id="vid#72#2#8" type="vtype1" route="r2to8" depart="72" />
    <vehicle id="vid#73#2#10" type="vtype1" route="r2to10" depart="73" />
    <vehicle id="vid#74#1#8" type="vtype1" route="r1to8" depart="74" />
    <vehicle id="vid#75#3#9" type="vtype1" route="r3to9" depart="75" />
    <vehicle id="vid#76#2#9" type="vtype1" route="r2to9" depart="76" />
    <vehicle id="vid#77#1#8" type="vtype1" route="r1to8" depart="77" />
    <vehicle id="vid#78#2#9" type="vtype1" route="r2to9" depart="78" />
    <vehicle id="vid#79#1#8" type="vtype1" route="r1to8" depart="79" />
    <vehicle id="vid#80#1#9" type="vtype1" route="r1to9" depart="80" />
    <vehicle id="vid#81#1#10" type="vtype1" route="r1to10" depart="81" />
    <vehicle id="vid#82#3#8" type="vtype1" route="r3to8" depart="82" />
    <vehicle id="vid#83#1#10" type="vtype1" route="r1to10" depart="83" />
    <vehicle id="vid#84#1#8" type="vtype1" route="r1to8" depart="84" />
    <vehicle id="vid#85#3#9" type="vtype1" route="r3to9" depart="85" />
    <vehicle id="vid#86#2#10" type="vtype1" route="r2to10" depart="86" />
    <vehicle id="vid#87#3#8" type="vtype1" route="r3to8" depart="87" />
    <vehicle id="vid#88#1#9" type="vtype1" route="r1to9" depart="88" />
    <vehicle id="vid#89#2#9" type="vtype1" route="r2to9" depart="89" />
    <vehicle id="vid#90#3#10" type="vtype1" route="r3to10" depart="90" />
    <vehicle id="vid#91#3#8" type="vtype1" route="r3to8" depart="91" />
    <vehicle id="vid#92#2#9" type="vtype1" route="r2to9" depart="92" />
    <vehicle id="vid#93#3#8" type="vtype1" route="r3to8" depart="93" />
    <vehicle id="vid#94#1#9" type="vtype1" route="r1to9" depart="94" />
    <vehicle id="vid#95#2#8" type="vtype1" route="r2to8" depart="95" />
    <vehicle id="vid#96#1#10" type="vtype1" route="r1to10" depart="96" />
    <vehicle id="vid#97#2#10" type="vtype1" route="r2to10" depart="97" />
    <vehicle id="vid#98#2#8" type="vtype1" route="r2to8" depart="98" />
    <vehicle id="vid#99#3#10" type="vtype1" route="r3to10" depart="99" />
</routes>
