<?xml version="1.0" encoding="UTF-8"?>

<!-- generated on Mon Jan 23 00:52:43 2017 by SUMO netconvert Version 0.19.0
<?xml version="1.0" encoding="UTF-8"?>

<configuration xmlns:xsi="http://www.w3.org/2001/XMLSchema-instance" xsi:noNamespaceSchemaLocation="http://sumo-sim.org/xsd/netconvertConfiguration.xsd">

    <input>
        <sumo-net-file value="bangalore.net.xml"/>
    </input>

    <output>
        <plain-output-prefix value="bangalore"/>
    </output>

    <processing>
        <no-turnarounds value="true"/>
        <offset.disable-normalization value="true"/>
    </processing>

</configuration>
-->

<nodes version="0.13" xmlns:xsi="http://www.w3.org/2001/XMLSchema-instance" xsi:noNamespaceSchemaLocation="http://sumo-sim.org/xsd/nodes_file.xsd">
    <location netOffset="-777744.08,-1430478.50" convBoundary="0.00,0.00,1524.91,1822.78" origBoundary="77.559737,12.927146,77.573854,12.943632" projParameter="+proj=utm +zone=43 +ellps=WGS84 +datum=WGS84 +units=m +no_defs"/>

    <node id="1466350485" x="626.01" y="1113.20" type="priority"/>
    <node id="1466350486" x="838.24" y="1123.52" type="priority"/>
    <node id="1466350487" x="667.94" y="1117.72" type="priority"/>
    <node id="1466350488" x="926.62" y="1129.12" type="priority"/>
    <node id="1466369200" x="749.41" y="1073.85" type="priority"/>
    <node id="1466369202" x="1027.84" y="1087.99" type="priority"/>
    <node id="1466369206" x="974.67" y="1085.55" type="priority"/>
    <node id="1466369213" x="670.56" y="1073.24" type="priority"/>
    <node id="1466400285" x="750.76" y="1030.39" type="priority"/>
    <node id="1466400287" x="976.73" y="1041.10" type="priority"/>
    <node id="1466400299" x="674.80" y="1027.15" type="priority"/>
    <node id="1467750612" x="907.41" y="989.83" type="priority"/>
    <node id="1467750616" x="679.19" y="930.81" type="priority"/>
    <node id="1467750622" x="757.24" y="936.92" type="priority"/>
    <node id="1467750625" x="567.32" y="931.11" type="priority"/>
    <node id="1467750626" x="680.88" y="887.54" type="priority"/>
    <node id="1467750627" x="401.67" y="927.42" type="priority"/>
    <node id="1467750630" x="753.01" y="981.45" type="priority"/>
    <node id="1467750632" x="676.22" y="974.71" type="priority"/>
    <node id="1467750633" x="906.41" y="924.77" type="priority"/>
    <node id="1467750636" x="761.58" y="896.55" type="priority"/>
    <node id="1467750638" x="841.20" y="887.90" type="priority"/>
    <node id="1467750640" x="676.50" y="992.85" type="priority"/>
    <node id="1467750641" x="220.05" y="1012.12" type="priority"/>
    <node id="1467750643" x="842.70" y="929.34" type="priority"/>
    <node id="1467750645" x="412.59" y="961.52" type="priority"/>
    <node id="1467750646" x="597.15" y="972.25" type="priority"/>
    <node id="1467757948" x="910.56" y="764.86" type="priority"/>
    <node id="1467757949" x="856.72" y="729.57" type="priority"/>
    <node id="1467757951" x="523.81" y="857.35" type="priority"/>
    <node id="1467757952" x="848.53" y="840.23" type="priority"/>
    <node id="1467757957" x="850.91" y="800.21" type="priority"/>
    <node id="1467757960" x="852.65" y="769.28" type="priority"/>
    <node id="1467757963" x="765.10" y="815.42" type="priority"/>
    <node id="1467757965" x="921.19" y="819.12" type="priority"/>
    <node id="1467757966" x="682.36" y="850.45" type="priority"/>
    <node id="1467767183" x="588.18" y="539.79" type="priority"/>
    <node id="1467767186" x="689.14" y="692.41" type="priority"/>
    <node id="1467767188" x="660.83" y="600.03" type="priority"/>
    <node id="1467767984" x="734.57" y="738.48" type="priority"/>
    <node id="1467767986" x="734.73" y="569.31" type="priority"/>
    <node id="1467767988" x="727.38" y="687.83" type="priority"/>
    <node id="1467767989" x="651.56" y="413.89" type="priority"/>
    <node id="1467767991" x="660.92" y="443.09" type="priority"/>
    <node id="1467794455" x="491.94" y="572.32" type="priority"/>
    <node id="1467794457" x="763.73" y="338.52" type="priority"/>
    <node id="1467794458" x="818.11" y="729.54" type="priority"/>
    <node id="1467794459" x="671.53" y="470.92" type="priority"/>
    <node id="1467794461" x="438.89" y="428.14" type="priority"/>
    <node id="1467794464" x="443.96" y="459.04" type="priority"/>
    <node id="1467794465" x="796.29" y="429.07" type="priority"/>
    <node id="1467794466" x="526.23" y="415.26" type="priority"/>
    <node id="1467794467" x="469.48" y="455.94" type="priority"/>
    <node id="1467794472" x="695.72" y="549.59" type="priority"/>
    <node id="1467794473" x="480.24" y="507.92" type="priority"/>
    <node id="1467794477" x="533.77" y="444.10" type="priority"/>
    <node id="1467794478" x="574.92" y="477.07" type="priority"/>
    <node id="1467794480" x="563.05" y="445.03" type="priority"/>
    <node id="1467794481" x="642.06" y="643.03" type="priority"/>
    <node id="1467794486" x="594.07" y="621.92" type="priority"/>
    <node id="1467794493" x="804.46" y="670.53" type="priority"/>
    <node id="1467794495" x="814.96" y="542.61" type="priority"/>
    <node id="1467794498" x="556.07" y="427.22" type="priority"/>
    <node id="1467794499" x="631.24" y="610.60" type="priority"/>
    <node id="1467794501" x="690.74" y="539.22" type="priority"/>
    <node id="1467794503" x="602.06" y="652.35" type="priority"/>
    <node id="1467794504" x="582.76" y="502.91" type="priority"/>
    <node id="1467794506" x="544.77" y="487.05" type="priority"/>
    <node id="1467794507" x="691.59" y="760.45" type="priority"/>
    <node id="1467794511" x="534.40" y="668.56" type="priority"/>
    <node id="1467794512" x="770.80" y="359.89" type="priority"/>
    <node id="1467794514" x="616.91" y="708.72" type="priority"/>
    <node id="1467794515" x="778.60" y="556.67" type="priority"/>
    <node id="1467794517" x="699.60" y="559.14" type="priority"/>
    <node id="1467794518" x="765.77" y="760.01" type="priority"/>
    <node id="1467794519" x="433.25" y="395.84" type="priority"/>
    <node id="1467794520" x="533.69" y="637.04" type="priority"/>
    <node id="1470553314" x="1172.35" y="891.34" type="priority"/>
    <node id="1470553341" x="1037.19" y="901.16" type="priority"/>
    <node id="1564747827" x="751.40" y="1120.76" type="priority"/>
    <node id="1564748890" x="1021.55" y="1185.88" type="priority"/>
    <node id="1741253817" x="444.60" y="234.06" type="priority"/>
    <node id="1836940037" x="1117.62" y="929.14" type="priority"/>
    <node id="1836940042" x="510.53" y="1155.70" type="priority"/>
    <node id="1836983028" x="1235.28" y="299.27" type="priority"/>
    <node id="1836983047" x="429.50" y="367.90" type="priority"/>
    <node id="1836983059" x="1244.79" y="444.35" type="priority"/>
    <node id="1836983067" x="465.19" y="578.77" type="priority"/>
    <node id="1836983081" x="317.67" y="691.30" type="priority"/>
    <node id="1836983094" x="348.22" y="791.32" type="priority"/>
    <node id="1836983131" x="439.49" y="1046.52" type="priority"/>
    <node id="1836983154" x="12.38" y="1141.04" type="priority"/>
    <node id="1838656432" x="1329.95" y="911.95" type="priority"/>
    <node id="1838656433" x="1426.67" y="961.62" type="priority"/>
    <node id="1838656434" x="1341.69" y="962.01" type="priority"/>
    <node id="1838656436" x="1348.10" y="1019.80" type="priority"/>
    <node id="1838656437" x="1298.18" y="1020.57" type="priority"/>
    <node id="1838656439" x="1214.40" y="1087.22" type="priority"/>
    <node id="1838656440" x="1303.03" y="1127.58" type="priority"/>
    <node id="1838656441" x="1214.70" y="1126.82" type="priority"/>
    <node id="1838656442" x="1135.57" y="1125.14" type="priority"/>
    <node id="1838656443" x="1214.99" y="1164.83" type="priority"/>
    <node id="2227583836" x="1184.13" y="1163.85" type="priority"/>
    <node id="2227583842" x="1120.30" y="1195.91" type="priority"/>
    <node id="2227583850" x="1195.03" y="1207.09" type="priority"/>
    <node id="2227583873" x="870.99" y="1354.78" type="priority"/>
    <node id="2227583876" x="1518.01" y="1364.01" type="priority"/>
    <node id="2421937693" x="1408.21" y="269.49" type="priority"/>
    <node id="2421937700" x="1374.54" y="278.08" type="priority"/>
    <node id="2421937707" x="1340.62" y="287.05" type="priority"/>
    <node id="2421937717" x="870.89" y="311.19" type="priority"/>
    <node id="2421937732" x="588.09" y="336.94" type="priority"/>
    <node id="2421937734" x="1355.35" y="348.60" type="priority"/>
    <node id="2421937737" x="1239.12" y="348.69" type="priority"/>
    <node id="2421937738" x="894.48" y="348.96" type="priority"/>
    <node id="2421937739" x="767.08" y="347.93" type="priority"/>
    <node id="2421937751" x="594.27" y="368.52" type="priority"/>
    <node id="2421937757" x="1362.59" y="380.45" type="priority"/>
    <node id="2421937759" x="902.74" y="378.05" type="priority"/>
    <node id="2421937761" x="1241.01" y="382.00" type="priority"/>
    <node id="2421937763" x="1152.84" y="382.20" type="priority"/>
    <node id="2421937790" x="599.37" y="401.86" type="priority"/>
    <node id="2421937807" x="1371.28" y="417.72" type="priority"/>
    <node id="2421937809" x="1243.11" y="416.68" type="priority"/>
    <node id="2421937813" x="1292.21" y="417.90" type="priority"/>
    <node id="2421937838" x="1134.84" y="429.77" type="priority"/>
    <node id="2421937845" x="1165.53" y="433.92" type="priority"/>
    <node id="2421937861" x="798.42" y="435.46" type="priority"/>
    <node id="2421937882" x="843.94" y="444.17" type="priority"/>
    <node id="2421937890" x="1455.42" y="452.59" type="priority"/>
    <node id="2421937894" x="804.79" y="452.95" type="priority"/>
    <node id="2421937912" x="1419.22" y="466.09" type="priority"/>
    <node id="2421937916" x="1246.66" y="466.38" type="priority"/>
    <node id="2421937935" x="1384.17" y="474.98" type="priority"/>
    <node id="2421937947" x="1180.92" y="485.54" type="priority"/>
    <node id="2421937949" x="731.28" y="479.11" type="priority"/>
    <node id="2421937956" x="1249.03" y="488.45" type="priority"/>
    <node id="2421937962" x="816.29" y="485.63" type="priority"/>
    <node id="2421937966" x="1190.12" y="495.41" type="priority"/>
    <node id="2421937967" x="973.04" y="492.55" type="priority"/>
    <node id="2421937983" x="1390.84" y="505.85" type="priority"/>
    <node id="2421937986" x="1200.56" y="507.43" type="priority"/>
    <node id="2421937995" x="1250.80" y="515.32" type="priority"/>
    <node id="2421937996" x="974.90" y="513.32" type="priority"/>
    <node id="2421938003" x="1127.43" y="518.39" type="priority"/>
    <node id="2421938009" x="1219.99" y="529.00" type="priority"/>
    <node id="2421938012" x="833.80" y="524.24" type="priority"/>
    <node id="2421938015" x="1397.47" y="536.49" type="priority"/>
    <node id="2421938020" x="978.25" y="534.34" type="priority"/>
    <node id="2421938034" x="850.54" y="547.41" type="priority"/>
    <node id="2421938043" x="1402.55" y="560.01" type="priority"/>
    <node id="2421938047" x="984.90" y="557.98" type="priority"/>
    <node id="2421938050" x="1240.32" y="568.95" type="priority"/>
    <node id="2421938057" x="858.67" y="572.02" type="priority"/>
    <node id="2421938061" x="1258.61" y="578.20" type="priority"/>
    <node id="2421938087" x="1409.24" y="590.97" type="priority"/>
    <node id="2421938100" x="1262.09" y="598.58" type="priority"/>
    <node id="2421938106" x="867.89" y="597.51" type="priority"/>
    <node id="2421938121" x="873.90" y="619.38" type="priority"/>
    <node id="2421938123" x="1265.69" y="623.77" type="priority"/>
    <node id="2421938134" x="1139.22" y="649.31" type="priority"/>
    <node id="2421938140" x="1459.27" y="657.28" type="priority"/>
    <node id="2421938141" x="1009.63" y="656.52" type="priority"/>
    <node id="2421938148" x="1270.77" y="663.75" type="priority"/>
    <node id="2421938156" x="1362.74" y="672.77" type="priority"/>
    <node id="2421938172" x="1016.26" y="679.71" type="priority"/>
    <node id="2421938184" x="1274.39" y="696.65" type="priority"/>
    <node id="2421938191" x="1025.80" y="709.12" type="priority"/>
    <node id="2421938219" x="1035.22" y="744.28" type="priority"/>
    <node id="2421938221" x="507.58" y="742.72" type="priority"/>
    <node id="2421938227" x="1416.42" y="757.39" type="priority"/>
    <node id="2421938232" x="1326.72" y="761.77" type="priority"/>
    <node id="2421938235" x="1282.49" y="764.52" type="priority"/>
    <node id="2421938253" x="503.80" y="784.36" type="priority"/>
    <node id="2421938275" x="1288.78" y="817.19" type="priority"/>
    <node id="2421938276" x="1229.10" y="818.55" type="priority"/>
    <node id="2421938281" x="507.23" y="817.46" type="priority"/>
    <node id="2421938284" x="364.34" y="827.96" type="priority"/>
    <node id="2421938297" x="1057.39" y="856.67" type="priority"/>
    <node id="2421938326" x="552.27" y="897.66" type="priority"/>
    <node id="2421938331" x="391.94" y="904.51" type="priority"/>
    <node id="2421938355" x="1190.15" y="967.31" type="priority"/>
    <node id="2421938357" x="1124.37" y="977.18" type="priority"/>
    <node id="2421938362" x="1029.95" y="985.86" type="priority"/>
    <node id="248679603" x="887.74" y="159.04" type="priority"/>
    <node id="248679644" x="703.46" y="189.79" type="priority"/>
    <node id="248680036" x="1512.12" y="255.36" type="priority"/>
    <node id="248776663" x="1523.66" y="1079.52" type="priority"/>
    <node id="248777033" x="745.77" y="1165.80" type="priority"/>
    <node id="248777037" x="769.12" y="854.89" type="priority"/>
    <node id="248808760" x="322.45" y="1149.96" type="priority"/>
    <node id="248808932" x="859.29" y="1822.78" type="priority"/>
    <node id="248809057" x="752.95" y="310.57" type="priority"/>
    <node id="248809806" x="1290.32" y="868.10" type="priority"/>
    <node id="248809811" x="1300.34" y="1167.56" type="priority"/>
    <node id="248809813" x="1300.07" y="1280.48" type="priority"/>
    <node id="248809814" x="1270.42" y="1324.77" type="priority"/>
    <node id="248810124" x="827.88" y="1351.74" type="priority"/>
    <node id="248810127" x="829.63" y="1169.12" type="priority"/>
    <node id="248810128" x="837.00" y="1079.05" type="priority"/>
    <node id="248810129" x="837.98" y="1034.96" type="priority"/>
    <node id="248810130" x="841.02" y="990.68" type="priority"/>
    <node id="248810135" x="846.99" y="662.90" type="priority"/>
    <node id="248810158" x="667.23" y="1162.60" type="priority"/>
    <node id="248810165" x="684.23" y="809.73" type="priority"/>
    <node id="248810166" x="653.68" y="700.72" type="priority"/>
    <node id="248810168" x="620.14" y="574.08" type="priority"/>
    <node id="248810256" x="763.97" y="679.37" type="priority"/>
    <node id="248810257" x="886.98" y="654.48" type="priority"/>
    <node id="248810329" x="792.82" y="475.79" type="priority"/>
    <node id="248838858" x="915.48" y="1356.02" type="priority"/>
    <node id="249070833" x="904.08" y="727.33" type="priority"/>
    <node id="249070834" x="935.43" y="873.61" type="priority"/>
    <node id="249070836" x="930.28" y="1040.25" type="priority"/>
    <node id="249070837" x="928.16" y="1083.99" type="priority"/>
    <node id="249070838" x="925.26" y="1183.24" type="priority"/>
    <node id="249070974" x="504.53" y="1339.72" type="priority"/>
    <node id="249071026" x="682.75" y="507.25" type="priority"/>
    <node id="249071028" x="810.25" y="466.54" type="priority"/>
    <node id="249080855" x="426.42" y="351.53" type="priority"/>
    <node id="249775483" x="1521.10" y="1166.54" type="priority"/>
    <node id="249775529" x="1424.83" y="1081.04" type="priority"/>
    <node id="249775597" x="1135.03" y="1165.29" type="priority"/>
    <node id="249775640" x="1102.05" y="1230.34" type="priority"/>
    <node id="249775675" x="1018.44" y="1365.27" type="priority"/>
    <node id="249775697" x="967.21" y="1360.08" type="priority"/>
    <node id="249775698" x="970.95" y="1185.00" type="priority"/>
    <node id="249775705" x="877.43" y="1175.80" type="priority"/>
    <node id="249775749" x="1299.36" y="1088.22" type="priority"/>
    <node id="249775751" x="1298.66" y="1042.61" type="priority"/>
    <node id="249775752" x="1031.34" y="1041.66" type="priority"/>
    <node id="249775795" x="980.23" y="940.50" type="priority"/>
    <node id="249775801" x="1133.23" y="1041.16" type="priority"/>
    <node id="249775829" x="1214.96" y="1041.79" type="priority"/>
    <node id="249775831" x="1180.14" y="921.86" type="priority"/>
    <node id="249775928" x="1027.16" y="938.08" type="priority"/>
    <node id="249775950" x="983.00" y="868.63" type="priority"/>
    <node id="249775953" x="1170.85" y="851.88" type="priority"/>
    <node id="249775975" x="986.85" y="719.09" type="priority"/>
    <node id="249775989" x="957.51" y="722.97" type="priority"/>
    <node id="249776011" x="894.94" y="678.48" type="priority"/>
    <node id="249776012" x="973.08" y="664.32" type="priority"/>
    <node id="249776018" x="1264.02" y="609.83" type="priority"/>
    <node id="249776187" x="1173.13" y="477.46" type="priority"/>
    <node id="249776418" x="777.96" y="377.19" type="priority"/>
    <node id="249776456" x="951.14" y="308.83" type="priority"/>
    <node id="249776627" x="1425.94" y="1018.59" type="priority"/>
    <node id="249776635" x="1521.81" y="911.90" type="priority"/>
    <node id="249776645" x="1524.91" y="846.22" type="priority"/>
    <node id="249776646" x="1427.29" y="867.30" type="priority"/>
    <node id="249776659" x="1319.29" y="866.57" type="priority"/>
    <node id="249776711" x="1253.54" y="547.56" type="priority"/>
    <node id="249776745" x="1516.44" y="445.04" type="priority"/>
    <node id="249776852" x="788.77" y="403.98" type="priority"/>
    <node id="249837943" x="1043.76" y="309.87" type="priority"/>
    <node id="303959798" x="1428.59" y="911.00" type="priority"/>
    <node id="303959800" x="1421.68" y="813.28" type="priority"/>
    <node id="303959801" x="1133.90" y="1087.13" type="priority"/>
    <node id="304066669" x="1422.62" y="1167.28" type="priority"/>
    <node id="3148770476" x="1423.64" y="1127.37" type="priority"/>
    <node id="3148770477" x="1496.65" y="1125.64" type="priority"/>
    <node id="3148782118" x="423.65" y="1004.49" type="priority"/>
    <node id="3148782119" x="516.65" y="984.64" type="priority"/>
    <node id="3148782122" x="594.08" y="994.78" type="priority"/>
    <node id="3148782128" x="639.75" y="993.17" type="priority"/>
    <node id="3496616936" x="362.70" y="980.16" type="priority"/>
    <node id="3683839896" x="1045.70" y="793.55" type="priority"/>
    <node id="459485487" x="1058.47" y="1609.01" type="priority"/>
    <node id="503260974" x="743.35" y="293.23" type="priority"/>
    <node id="503260996" x="5.33" y="160.29" type="priority"/>
    <node id="503975983" x="745.97" y="1511.05" type="priority"/>
    <node id="503976015" x="1422.07" y="1319.86" type="priority"/>
    <node id="514435248" x="1211.62" y="519.47" type="priority"/>
    <node id="514435257" x="1071.72" y="345.91" type="priority"/>
    <node id="514435340" x="1204.44" y="1.35" type="priority"/>
    <node id="514436333" x="1489.33" y="853.52" type="priority"/>
    <node id="cluster_1467767990_1467794470" x="704.53" y="584.67" type="priority"/>
    <node id="cluster_1467794474_1467794479" x="807.67" y="514.82" type="priority"/>
    <node id="cluster_1467794489_248809073" x="895.07" y="311.66" type="priority"/>
    <node id="cluster_2421937765_514435254" x="1098.77" y="388.67" type="priority"/>
    <node id="cluster_2421937850_2421937873" x="1376.85" y="440.80" type="priority"/>
    <node id="cluster_2421938068_2421938098" x="990.55" y="584.61" type="priority"/>
    <node id="cluster_2421938110_2421938127" x="1001.15" y="620.55" type="priority"/>
</nodes>
