<?xml version="1.0" encoding="UTF-8"?>

<!-- generated on Mon Jan 23 00:52:43 2017 by SUMO netconvert Version 0.19.0
<?xml version="1.0" encoding="UTF-8"?>

<configuration xmlns:xsi="http://www.w3.org/2001/XMLSchema-instance" xsi:noNamespaceSchemaLocation="http://sumo-sim.org/xsd/netconvertConfiguration.xsd">

    <input>
        <sumo-net-file value="bangalore.net.xml"/>
    </input>

    <output>
        <plain-output-prefix value="bangalore"/>
    </output>

    <processing>
        <no-turnarounds value="true"/>
        <offset.disable-normalization value="true"/>
    </processing>

</configuration>
-->

<tlLogics version="0.13" xmlns:xsi="http://www.w3.org/2001/XMLSchema-instance" xsi:noNamespaceSchemaLocation="http://sumo-sim.org/xsd/tllogic_file.xsd">
</tlLogics>
