<?xml version="1.0" encoding="UTF-8"?>

<!-- generated on Mon Jan 23 00:52:43 2017 by SUMO netconvert Version 0.19.0
<?xml version="1.0" encoding="UTF-8"?>

<configuration xmlns:xsi="http://www.w3.org/2001/XMLSchema-instance" xsi:noNamespaceSchemaLocation="http://sumo-sim.org/xsd/netconvertConfiguration.xsd">

    <input>
        <sumo-net-file value="bangalore.net.xml"/>
    </input>

    <output>
        <plain-output-prefix value="bangalore"/>
    </output>

    <processing>
        <no-turnarounds value="true"/>
        <offset.disable-normalization value="true"/>
    </processing>

</configuration>
-->

<connections version="0.13" xmlns:xsi="http://www.w3.org/2001/XMLSchema-instance" xsi:noNamespaceSchemaLocation="http://sumo-sim.org/xsd/connections_file.xsd">
    <connection from="-133235120#0" to="-38042628#25" fromLane="0" toLane="0"/>
    <connection from="-133235120#0" to="38042628#26" fromLane="0" toLane="1"/>
    <connection from="-133235120#0" to="133235120#0" fromLane="0" toLane="0"/>

    <connection from="-133235120#1" to="-172851208#14" fromLane="0" toLane="0"/>
    <connection from="-133235120#1" to="-133235120#0" fromLane="0" toLane="0"/>
    <connection from="-133235120#1" to="172851208#15" fromLane="0" toLane="0"/>
    <connection from="-133235120#1" to="133235120#1" fromLane="0" toLane="0"/>

    <connection from="-133235120#2" to="38042852#4" fromLane="0" toLane="0"/>
    <connection from="-133235120#2" to="-133235120#1" fromLane="0" toLane="0"/>
    <connection from="-133235120#2" to="-38042852#3" fromLane="0" toLane="0"/>
    <connection from="-133235120#2" to="133235120#2" fromLane="0" toLane="0"/>

    <connection from="-133235120#3" to="23058363#2" fromLane="0" toLane="0"/>
    <connection from="-133235120#3" to="-133235120#2" fromLane="0" toLane="0"/>
    <connection from="-133235120#3" to="-23058363#1" fromLane="0" toLane="0"/>
    <connection from="-133235120#3" to="133235120#3" fromLane="0" toLane="0"/>

    <connection from="-133235173#0" to="-290644042#8" fromLane="0" toLane="0"/>
    <connection from="-133235173#0" to="-335704708#1" fromLane="0" toLane="0"/>
    <connection from="-133235173#0" to="454013118#0" fromLane="0" toLane="0"/>
    <connection from="-133235173#0" to="133235173#0" fromLane="0" toLane="0"/>

    <connection from="-133235173#1" to="-173039118#4" fromLane="0" toLane="0"/>
    <connection from="-133235173#1" to="-133235173#0" fromLane="0" toLane="0"/>
    <connection from="-133235173#1" to="173039118#5" fromLane="0" toLane="0"/>
    <connection from="-133235173#1" to="133235173#1" fromLane="0" toLane="0"/>

    <connection from="-133235173#2" to="-23132922#2" fromLane="0" toLane="0"/>
    <connection from="-133235173#2" to="-133235173#1" fromLane="0" toLane="0"/>
    <connection from="-133235173#2" to="23132922#3" fromLane="0" toLane="0"/>
    <connection from="-133235173#2" to="133235173#2" fromLane="0" toLane="0"/>

    <connection from="-133235641#0" to="233870495#0" fromLane="0" toLane="0"/>
    <connection from="-133235641#0" to="-23132942#2" fromLane="0" toLane="0"/>
    <connection from="-133235641#0" to="-23132953#2" fromLane="0" toLane="0"/>
    <connection from="-133235641#0" to="133235641#0" fromLane="0" toLane="0"/>

    <connection from="-133235641#1" to="23132930#3" fromLane="0" toLane="0"/>
    <connection from="-133235641#1" to="-133235641#0" fromLane="0" toLane="0"/>
    <connection from="-133235641#1" to="-23132930#2" fromLane="0" toLane="0"/>
    <connection from="-133235641#1" to="133235641#1" fromLane="0" toLane="0"/>

    <connection from="-133235641#2" to="-38042628#23" fromLane="0" toLane="0"/>
    <connection from="-133235641#2" to="-133235641#1" fromLane="0" toLane="0"/>
    <connection from="-133235641#2" to="38042628#24" fromLane="0" toLane="1"/>
    <connection from="-133235641#2" to="133235641#2" fromLane="0" toLane="0"/>

    <connection from="-133235641#3" to="-172851208#12" fromLane="0" toLane="0"/>
    <connection from="-133235641#3" to="-133235641#2" fromLane="0" toLane="0"/>
    <connection from="-133235641#3" to="172851208#13" fromLane="0" toLane="0"/>
    <connection from="-133235641#3" to="133235641#3" fromLane="0" toLane="0"/>

    <connection from="-133235641#4" to="38042852#6" fromLane="0" toLane="0"/>
    <connection from="-133235641#4" to="-133235641#3" fromLane="0" toLane="0"/>
    <connection from="-133235641#4" to="-38042852#5" fromLane="0" toLane="0"/>
    <connection from="-133235641#4" to="133235641#4" fromLane="0" toLane="0"/>

    <connection from="-133337048" to="233870641#0" fromLane="0" toLane="0"/>
    <connection from="-133337048" to="23132965#0" fromLane="0" toLane="0"/>
    <connection from="-133337048" to="133337048" fromLane="0" toLane="0"/>

    <connection from="-133337050" to="133337050" fromLane="0" toLane="0"/>

    <connection from="-133337051#0" to="133337051#0" fromLane="0" toLane="0"/>

    <connection from="-133337051#1" to="-172851208#10" fromLane="0" toLane="0"/>
    <connection from="-133337051#1" to="-133337051#0" fromLane="0" toLane="0"/>
    <connection from="-133337051#1" to="172851208#11" fromLane="0" toLane="0"/>
    <connection from="-133337051#1" to="133337051#1" fromLane="0" toLane="0"/>

    <connection from="-133337051#2" to="38042852#8" fromLane="0" toLane="0"/>
    <connection from="-133337051#2" to="-133337051#1" fromLane="0" toLane="0"/>
    <connection from="-133337051#2" to="-38042852#7" fromLane="0" toLane="0"/>
    <connection from="-133337051#2" to="133337051#2" fromLane="0" toLane="0"/>

    <connection from="-133337051#3" to="23058363#7" fromLane="0" toLane="0"/>
    <connection from="-133337051#3" to="-133337051#2" fromLane="0" toLane="0"/>
    <connection from="-133337051#3" to="-23058363#6" fromLane="0" toLane="0"/>
    <connection from="-133337051#3" to="133337051#3" fromLane="0" toLane="0"/>

    <connection from="-133337051#4" to="-233870654#4" fromLane="0" toLane="0"/>
    <connection from="-133337051#4" to="-133337051#3" fromLane="0" toLane="0"/>
    <connection from="-133337051#4" to="133337051#4" fromLane="0" toLane="0"/>

    <connection from="-133337051#5" to="-23074984#4" fromLane="0" toLane="0"/>
    <connection from="-133337051#5" to="-133337051#4" fromLane="0" toLane="0"/>
    <connection from="-133337051#5" to="23074984#5" fromLane="0" toLane="0"/>
    <connection from="-133337051#5" to="133337051#5" fromLane="0" toLane="0"/>

    <connection from="-133337053#0" to="38042852#7" fromLane="0" toLane="0"/>
    <connection from="-133337053#0" to="-38042852#6" fromLane="0" toLane="0"/>
    <connection from="-133337053#0" to="133337053#0" fromLane="0" toLane="0"/>

    <connection from="-133337053#1" to="23058363#6" fromLane="0" toLane="0"/>
    <connection from="-133337053#1" to="-133337053#0" fromLane="0" toLane="0"/>
    <connection from="-133337053#1" to="-23058363#5" fromLane="0" toLane="0"/>
    <connection from="-133337053#1" to="133337053#1" fromLane="0" toLane="0"/>

    <connection from="-133337474" to="-172851208#7" fromLane="0" toLane="0"/>
    <connection from="-133337474" to="172851208#8" fromLane="0" toLane="0"/>
    <connection from="-133337474" to="133337474" fromLane="0" toLane="0"/>

    <connection from="-133337475" to="-38042628#20" fromLane="0" toLane="0"/>
    <connection from="-133337475" to="38042628#21" fromLane="0" toLane="1"/>
    <connection from="-133337475" to="133337475" fromLane="0" toLane="0"/>

    <connection from="-133337478#0" to="-38042628#21" fromLane="0" toLane="0"/>
    <connection from="-133337478#0" to="38042628#22" fromLane="0" toLane="1"/>
    <connection from="-133337478#0" to="133337478#0" fromLane="0" toLane="0"/>

    <connection from="-133337478#1" to="-172851208#8" fromLane="0" toLane="0"/>
    <connection from="-133337478#1" to="-133337478#0" fromLane="0" toLane="0"/>
    <connection from="-133337478#1" to="172851208#9" fromLane="0" toLane="0"/>
    <connection from="-133337478#1" to="133337478#1" fromLane="0" toLane="0"/>

    <connection from="-133337478#2" to="38042852#10" fromLane="0" toLane="0"/>
    <connection from="-133337478#2" to="-133337478#1" fromLane="0" toLane="0"/>
    <connection from="-133337478#2" to="-38042852#9" fromLane="0" toLane="0"/>
    <connection from="-133337478#2" to="133337478#2" fromLane="0" toLane="0"/>

    <connection from="-133337478#3" to="23058363#9" fromLane="0" toLane="0"/>
    <connection from="-133337478#3" to="-133337478#2" fromLane="0" toLane="0"/>
    <connection from="-133337478#3" to="-23058363#8" fromLane="0" toLane="0"/>
    <connection from="-133337478#3" to="133337478#3" fromLane="0" toLane="0"/>

    <connection from="-133337692#0" to="23058363#10" fromLane="0" toLane="0"/>
    <connection from="-133337692#0" to="-23058363#9" fromLane="0" toLane="0"/>
    <connection from="-133337692#0" to="133337692#0" fromLane="0" toLane="0"/>

    <connection from="-133337692#1" to="23058373#3" fromLane="0" toLane="0"/>
    <connection from="-133337692#1" to="-133337692#0" fromLane="0" toLane="0"/>
    <connection from="-133337692#1" to="-23058373#2" fromLane="0" toLane="0"/>
    <connection from="-133337692#1" to="133337692#1" fromLane="0" toLane="0"/>

    <connection from="-133337692#2" to="-133337692#1" fromLane="0" toLane="0"/>
    <connection from="-133337692#2" to="133339460#0" fromLane="0" toLane="0"/>
    <connection from="-133337692#2" to="133337692#2" fromLane="0" toLane="0"/>

    <connection from="-133337692#3" to="-133339462#5" fromLane="0" toLane="0"/>
    <connection from="-133337692#3" to="-133337692#2" fromLane="0" toLane="0"/>
    <connection from="-133337692#3" to="133339462#6" fromLane="0" toLane="0"/>
    <connection from="-133337692#3" to="133337692#3" fromLane="0" toLane="0"/>

    <connection from="-133337692#4" to="133339464" fromLane="0" toLane="0"/>
    <connection from="-133337692#4" to="-133337692#3" fromLane="0" toLane="0"/>
    <connection from="-133337692#4" to="133337692#4" fromLane="0" toLane="0"/>

    <connection from="-133337692#5" to="172851199#2" fromLane="0" toLane="0"/>
    <connection from="-133337692#5" to="-133337692#4" fromLane="0" toLane="0"/>
    <connection from="-133337692#5" to="-172851199#1" fromLane="0" toLane="0"/>
    <connection from="-133337692#5" to="133337692#5" fromLane="0" toLane="0"/>

    <connection from="-133337692#6" to="-133339471#1" fromLane="0" toLane="0"/>
    <connection from="-133337692#6" to="-133337692#5" fromLane="0" toLane="0"/>
    <connection from="-133337692#6" to="133337692#6" fromLane="0" toLane="0"/>

    <connection from="-133337692#7" to="-133339470#2" fromLane="0" toLane="0"/>
    <connection from="-133337692#7" to="-133337692#6" fromLane="0" toLane="0"/>
    <connection from="-133337692#7" to="133339470#3" fromLane="0" toLane="0"/>
    <connection from="-133337692#7" to="133337692#7" fromLane="0" toLane="0"/>

    <connection from="-133337692#8" to="-133339473#2" fromLane="0" toLane="0"/>
    <connection from="-133337692#8" to="-133337692#7" fromLane="0" toLane="0"/>
    <connection from="-133337692#8" to="133337692#8" fromLane="0" toLane="0"/>

    <connection from="-133338005#0" to="133338005#0" fromLane="0" toLane="0"/>

    <connection from="-133338005#1" to="23058373#5" fromLane="0" toLane="0"/>
    <connection from="-133338005#1" to="-133338005#0" fromLane="0" toLane="0"/>
    <connection from="-133338005#1" to="-23058373#4" fromLane="0" toLane="0"/>
    <connection from="-133338005#1" to="133338005#1" fromLane="0" toLane="0"/>

    <connection from="-133339458#0" to="23058373#2" fromLane="0" toLane="0"/>
    <connection from="-133339458#0" to="-23058373#1" fromLane="0" toLane="0"/>
    <connection from="-133339458#0" to="133339458#0" fromLane="0" toLane="0"/>

    <connection from="-133339458#1" to="-133339460#0" fromLane="0" toLane="0"/>
    <connection from="-133339458#1" to="-133339458#0" fromLane="0" toLane="0"/>
    <connection from="-133339458#1" to="133339460#1" fromLane="0" toLane="0"/>
    <connection from="-133339458#1" to="133339458#1" fromLane="0" toLane="0"/>

    <connection from="-133339459#0" to="172851199#1" fromLane="0" toLane="0"/>
    <connection from="-133339459#0" to="-172851199#0" fromLane="0" toLane="0"/>
    <connection from="-133339459#0" to="133339459#0" fromLane="0" toLane="0"/>

    <connection from="-133339459#1" to="-133339470#4" fromLane="0" toLane="0"/>
    <connection from="-133339459#1" to="-133339459#0" fromLane="0" toLane="0"/>
    <connection from="-133339459#1" to="133339459#1" fromLane="0" toLane="0"/>

    <connection from="-133339460#0" to="133337692#2" fromLane="0" toLane="0"/>
    <connection from="-133339460#0" to="-133337692#1" fromLane="0" toLane="0"/>
    <connection from="-133339460#0" to="133339460#0" fromLane="0" toLane="0"/>

    <connection from="-133339460#1" to="133339458#1" fromLane="0" toLane="0"/>
    <connection from="-133339460#1" to="-133339460#0" fromLane="0" toLane="0"/>
    <connection from="-133339460#1" to="-133339458#0" fromLane="0" toLane="0"/>
    <connection from="-133339460#1" to="133339460#1" fromLane="0" toLane="0"/>

    <connection from="-133339461#0" to="133339474#2" fromLane="0" toLane="0"/>
    <connection from="-133339461#0" to="-133339474#1" fromLane="0" toLane="0"/>
    <connection from="-133339461#0" to="133339461#0" fromLane="0" toLane="0"/>

    <connection from="-133339461#1" to="133339465#0" fromLane="0" toLane="0"/>
    <connection from="-133339461#1" to="-133339461#0" fromLane="0" toLane="0"/>
    <connection from="-133339461#1" to="133339461#1" fromLane="0" toLane="0"/>

    <connection from="-133339462#0" to="-172851208#3" fromLane="0" toLane="0"/>
    <connection from="-133339462#0" to="172851208#4" fromLane="0" toLane="0"/>
    <connection from="-133339462#0" to="133339462#0" fromLane="0" toLane="0"/>

    <connection from="-133339462#1" to="-133339462#0" fromLane="0" toLane="0"/>
    <connection from="-133339462#1" to="-133339466#1" fromLane="0" toLane="0"/>
    <connection from="-133339462#1" to="133339462#1" fromLane="0" toLane="0"/>

    <connection from="-133339462#2" to="-133339462#1" fromLane="0" toLane="0"/>
    <connection from="-133339462#2" to="-172845846" fromLane="0" toLane="0"/>
    <connection from="-133339462#2" to="133339462#2" fromLane="0" toLane="0"/>

    <connection from="-133339462#4" to="134795976#0" fromLane="0" toLane="0"/>
    <connection from="-133339462#4" to="-133339462#2" fromLane="0" toLane="0"/>
    <connection from="-133339462#4" to="-133338005#1" fromLane="0" toLane="0"/>
    <connection from="-133339462#4" to="133339462#4" fromLane="0" toLane="0"/>

    <connection from="-133339462#5" to="-133339462#4" fromLane="0" toLane="0"/>
    <connection from="-133339462#5" to="-172851209" fromLane="0" toLane="0"/>
    <connection from="-133339462#5" to="133339462#5" fromLane="0" toLane="0"/>

    <connection from="-133339462#6" to="133337692#3" fromLane="0" toLane="0"/>
    <connection from="-133339462#6" to="-133339462#5" fromLane="0" toLane="0"/>
    <connection from="-133339462#6" to="-133337692#2" fromLane="0" toLane="0"/>
    <connection from="-133339462#6" to="133339462#6" fromLane="0" toLane="0"/>

    <connection from="-133339462#7" to="-133339462#6" fromLane="0" toLane="0"/>
    <connection from="-133339462#7" to="-133339458#1" fromLane="0" toLane="0"/>
    <connection from="-133339462#7" to="133339462#7" fromLane="0" toLane="0"/>

    <connection from="-133339463" to="38042852#12" fromLane="0" toLane="0"/>
    <connection from="-133339463" to="-38042852#11" fromLane="0" toLane="0"/>
    <connection from="-133339463" to="133339463" fromLane="0" toLane="0"/>

    <connection from="-133339464" to="-133337692#3" fromLane="0" toLane="0"/>
    <connection from="-133339464" to="133337692#4" fromLane="0" toLane="0"/>
    <connection from="-133339464" to="133339464" fromLane="0" toLane="0"/>

    <connection from="-133339465#0" to="-133339461#0" fromLane="0" toLane="0"/>
    <connection from="-133339465#0" to="133339461#1" fromLane="0" toLane="0"/>
    <connection from="-133339465#0" to="133339465#0" fromLane="0" toLane="0"/>

    <connection from="-133339465#1" to="-133339465#0" fromLane="0" toLane="0"/>
    <connection from="-133339465#1" to="-133339459#1" fromLane="0" toLane="0"/>
    <connection from="-133339465#1" to="133339465#1" fromLane="0" toLane="0"/>

    <connection from="-133339466#0" to="133339466#0" fromLane="0" toLane="0"/>

    <connection from="-133339466#1" to="23058373#7" fromLane="0" toLane="0"/>
    <connection from="-133339466#1" to="-133339466#0" fromLane="0" toLane="0"/>
    <connection from="-133339466#1" to="-23058373#6" fromLane="0" toLane="0"/>
    <connection from="-133339466#1" to="133339466#1" fromLane="0" toLane="0"/>

    <connection from="-133339468#0" to="-38042628#2" fromLane="0" toLane="0"/>
    <connection from="-133339468#0" to="38042628#3" fromLane="0" toLane="1"/>
    <connection from="-133339468#0" to="133339468#0" fromLane="0" toLane="0"/>

    <connection from="-133339468#1" to="233870542#1" fromLane="0" toLane="0"/>
    <connection from="-133339468#1" to="-133339468#0" fromLane="0" toLane="0"/>
    <connection from="-133339468#1" to="-233870542#0" fromLane="0" toLane="0"/>
    <connection from="-133339468#1" to="133339468#1" fromLane="0" toLane="0"/>

    <connection from="-133339470#0" to="-233870551#1" fromLane="0" toLane="0"/>
    <connection from="-133339470#0" to="133339470#0" fromLane="0" toLane="0"/>

    <connection from="-133339470#1" to="-38042628#6" fromLane="0" toLane="0"/>
    <connection from="-133339470#1" to="-133339470#0" fromLane="0" toLane="0"/>
    <connection from="-133339470#1" to="38042628#7" fromLane="0" toLane="1"/>
    <connection from="-133339470#1" to="133339470#1" fromLane="0" toLane="0"/>

    <connection from="-133339470#2" to="134795976#6" fromLane="0" toLane="0"/>
    <connection from="-133339470#2" to="-133339470#1" fromLane="0" toLane="0"/>
    <connection from="-133339470#2" to="-134795976#5" fromLane="0" toLane="0"/>
    <connection from="-133339470#2" to="133339470#2" fromLane="0" toLane="0"/>

    <connection from="-133339470#3" to="133337692#7" fromLane="0" toLane="0"/>
    <connection from="-133339470#3" to="-133339470#2" fromLane="0" toLane="0"/>
    <connection from="-133339470#3" to="-133337692#6" fromLane="0" toLane="0"/>
    <connection from="-133339470#3" to="133339470#3" fromLane="0" toLane="0"/>

    <connection from="-133339470#4" to="-133339461#1" fromLane="0" toLane="0"/>
    <connection from="-133339470#4" to="-133339470#3" fromLane="0" toLane="0"/>
    <connection from="-133339470#4" to="133339470#4" fromLane="0" toLane="0"/>

    <connection from="-133339471#0" to="-38042628#7" fromLane="0" toLane="0"/>
    <connection from="-133339471#0" to="38042628#8" fromLane="0" toLane="1"/>
    <connection from="-133339471#0" to="133339471#0" fromLane="0" toLane="0"/>

    <connection from="-133339471#1" to="134795976#5" fromLane="0" toLane="0"/>
    <connection from="-133339471#1" to="-133339471#0" fromLane="0" toLane="0"/>
    <connection from="-133339471#1" to="-134795976#4" fromLane="0" toLane="0"/>
    <connection from="-133339471#1" to="133339471#1" fromLane="0" toLane="0"/>

    <connection from="-133339472" to="-134795976#0" fromLane="0" toLane="0"/>
    <connection from="-133339472" to="134795976#1" fromLane="0" toLane="0"/>
    <connection from="-133339472" to="133339472" fromLane="0" toLane="0"/>

    <connection from="-133339473#0" to="-233870551#0" fromLane="0" toLane="0"/>
    <connection from="-133339473#0" to="233870551#1" fromLane="0" toLane="0"/>
    <connection from="-133339473#0" to="133339473#0" fromLane="0" toLane="0"/>

    <connection from="-133339473#1" to="-38042628#5" fromLane="0" toLane="0"/>
    <connection from="-133339473#1" to="-133339473#0" fromLane="0" toLane="0"/>
    <connection from="-133339473#1" to="38042628#6" fromLane="0" toLane="1"/>
    <connection from="-133339473#1" to="133339473#1" fromLane="0" toLane="0"/>

    <connection from="-133339473#2" to="-133339473#1" fromLane="0" toLane="0"/>
    <connection from="-133339473#2" to="-134795976#6" fromLane="0" toLane="0"/>
    <connection from="-133339473#2" to="133339473#2" fromLane="0" toLane="0"/>

    <connection from="-133339474#0" to="-38042628#4" fromLane="0" toLane="0"/>
    <connection from="-133339474#0" to="38042628#5" fromLane="0" toLane="1"/>
    <connection from="-133339474#0" to="133339474#0" fromLane="0" toLane="0"/>

    <connection from="-133339474#1" to="233870542#0" fromLane="0" toLane="0"/>
    <connection from="-133339474#1" to="-133339474#0" fromLane="0" toLane="0"/>
    <connection from="-133339474#1" to="133339474#1" fromLane="0" toLane="0"/>

    <connection from="-133339474#2" to="-133339474#1" fromLane="0" toLane="0"/>
    <connection from="-133339474#2" to="133339461#0" fromLane="0" toLane="0"/>
    <connection from="-133339474#2" to="133339474#2" fromLane="0" toLane="0"/>

    <connection from="-133339476" to="-134795976#2" fromLane="0" toLane="0"/>
    <connection from="-133339476" to="134795976#3" fromLane="0" toLane="0"/>
    <connection from="-133339476" to="133339476" fromLane="0" toLane="0"/>

    <connection from="-133599364" to="-173039118#0" fromLane="0" toLane="0"/>
    <connection from="-133599364" to="173039118#1" fromLane="0" toLane="0"/>
    <connection from="-133599364" to="133599364" fromLane="0" toLane="0"/>

    <connection from="-134795976#0" to="-133339462#2" fromLane="0" toLane="0"/>
    <connection from="-134795976#0" to="-133338005#1" fromLane="0" toLane="0"/>
    <connection from="-134795976#0" to="133339462#4" fromLane="0" toLane="0"/>
    <connection from="-134795976#0" to="134795976#0" fromLane="0" toLane="0"/>

    <connection from="-134795976#1" to="133339472" fromLane="0" toLane="0"/>
    <connection from="-134795976#1" to="-134795976#0" fromLane="0" toLane="0"/>
    <connection from="-134795976#1" to="134795976#1" fromLane="0" toLane="0"/>

    <connection from="-134795976#2" to="-134795976#1" fromLane="0" toLane="0"/>
    <connection from="-134795976#2" to="-133339464" fromLane="0" toLane="0"/>
    <connection from="-134795976#2" to="134795976#2" fromLane="0" toLane="0"/>

    <connection from="-134795976#3" to="133339476" fromLane="0" toLane="0"/>
    <connection from="-134795976#3" to="-134795976#2" fromLane="0" toLane="0"/>
    <connection from="-134795976#3" to="134795976#3" fromLane="0" toLane="0"/>

    <connection from="-134795976#4" to="172851199#3" fromLane="0" toLane="0"/>
    <connection from="-134795976#4" to="-134795976#3" fromLane="0" toLane="0"/>
    <connection from="-134795976#4" to="-172851199#2" fromLane="0" toLane="0"/>
    <connection from="-134795976#4" to="134795976#4" fromLane="0" toLane="0"/>

    <connection from="-134795976#5" to="-133339471#0" fromLane="0" toLane="0"/>
    <connection from="-134795976#5" to="-134795976#4" fromLane="0" toLane="0"/>
    <connection from="-134795976#5" to="133339471#1" fromLane="0" toLane="0"/>
    <connection from="-134795976#5" to="134795976#5" fromLane="0" toLane="0"/>

    <connection from="-134795976#6" to="-133339470#1" fromLane="0" toLane="0"/>
    <connection from="-134795976#6" to="-134795976#5" fromLane="0" toLane="0"/>
    <connection from="-134795976#6" to="133339470#2" fromLane="0" toLane="0"/>
    <connection from="-134795976#6" to="134795976#6" fromLane="0" toLane="0"/>

    <connection from="-143031164#0" to="-173039118#1" fromLane="0" toLane="0"/>
    <connection from="-143031164#0" to="173039118#2" fromLane="0" toLane="0"/>
    <connection from="-143031164#0" to="143031164#0" fromLane="0" toLane="0"/>

    <connection from="-143031164#1" to="-143031164#0" fromLane="0" toLane="0"/>
    <connection from="-143031164#1" to="23132922#0" fromLane="0" toLane="0"/>
    <connection from="-143031164#1" to="143031164#1" fromLane="0" toLane="0"/>

    <connection from="-143031164#2" to="-143031164#1" fromLane="0" toLane="0"/>
    <connection from="-143031164#2" to="-233870495#1" fromLane="0" toLane="0"/>
    <connection from="-143031164#2" to="143031164#2" fromLane="0" toLane="0"/>

    <connection from="-143031545#0" to="23132953#2" fromLane="0" toLane="0"/>
    <connection from="-143031545#0" to="-133235173#2" fromLane="0" toLane="0"/>
    <connection from="-143031545#0" to="-23132953#1" fromLane="0" toLane="0"/>
    <connection from="-143031545#0" to="143031545#0" fromLane="0" toLane="0"/>

    <connection from="-143031545#1" to="23132930#2" fromLane="0" toLane="0"/>
    <connection from="-143031545#1" to="-143031545#0" fromLane="0" toLane="0"/>
    <connection from="-143031545#1" to="-23132930#1" fromLane="0" toLane="0"/>
    <connection from="-143031545#1" to="143031545#1" fromLane="0" toLane="0"/>

    <connection from="-143031545#2" to="-38042628#24" fromLane="0" toLane="0"/>
    <connection from="-143031545#2" to="-143031545#1" fromLane="0" toLane="0"/>
    <connection from="-143031545#2" to="38042628#25" fromLane="0" toLane="1"/>
    <connection from="-143031545#2" to="143031545#2" fromLane="0" toLane="0"/>

    <connection from="-143031545#3" to="-172851208#13" fromLane="0" toLane="0"/>
    <connection from="-143031545#3" to="-143031545#2" fromLane="0" toLane="0"/>
    <connection from="-143031545#3" to="172851208#14" fromLane="0" toLane="0"/>
    <connection from="-143031545#3" to="143031545#3" fromLane="0" toLane="0"/>

    <connection from="-143031545#4" to="38042852#5" fromLane="0" toLane="0"/>
    <connection from="-143031545#4" to="-143031545#3" fromLane="0" toLane="0"/>
    <connection from="-143031545#4" to="-38042852#4" fromLane="0" toLane="0"/>
    <connection from="-143031545#4" to="143031545#4" fromLane="0" toLane="0"/>

    <connection from="-143031545#5" to="23058363#3" fromLane="0" toLane="0"/>
    <connection from="-143031545#5" to="-143031545#4" fromLane="0" toLane="0"/>
    <connection from="-143031545#5" to="-23058363#2" fromLane="0" toLane="0"/>
    <connection from="-143031545#5" to="143031545#5" fromLane="0" toLane="0"/>

    <connection from="-143031545#6" to="-143031545#5" fromLane="0" toLane="0"/>
    <connection from="-143031545#6" to="-309530580" fromLane="0" toLane="0"/>
    <connection from="-143031545#6" to="143031545#6" fromLane="0" toLane="0"/>

    <connection from="-172845846" to="23058373#6" fromLane="0" toLane="0"/>
    <connection from="-172845846" to="-38042852#12" fromLane="0" toLane="0"/>
    <connection from="-172845846" to="-23058373#5" fromLane="0" toLane="0"/>
    <connection from="-172845846" to="172845846" fromLane="0" toLane="0"/>

    <connection from="-172851197" to="-23074984#6" fromLane="0" toLane="0"/>
    <connection from="-172851197" to="172851201#0" fromLane="0" toLane="0"/>
    <connection from="-172851197" to="172851197" fromLane="0" toLane="0"/>

    <connection from="-172851199#0" to="-23058382#0" fromLane="0" toLane="0"/>
    <connection from="-172851199#0" to="23058382#1" fromLane="0" toLane="0"/>
    <connection from="-172851199#0" to="172851199#0" fromLane="0" toLane="0"/>

    <connection from="-172851199#1" to="-172851199#0" fromLane="0" toLane="0"/>
    <connection from="-172851199#1" to="133339459#0" fromLane="0" toLane="0"/>
    <connection from="-172851199#1" to="172851199#1" fromLane="0" toLane="0"/>

    <connection from="-172851199#2" to="-133337692#4" fromLane="0" toLane="0"/>
    <connection from="-172851199#2" to="-172851199#1" fromLane="0" toLane="0"/>
    <connection from="-172851199#2" to="133337692#5" fromLane="0" toLane="0"/>
    <connection from="-172851199#2" to="172851199#2" fromLane="0" toLane="0"/>

    <connection from="-172851199#3" to="-134795976#3" fromLane="0" toLane="0"/>
    <connection from="-172851199#3" to="-172851199#2" fromLane="0" toLane="0"/>
    <connection from="-172851199#3" to="134795976#4" fromLane="0" toLane="0"/>
    <connection from="-172851199#3" to="172851199#3" fromLane="0" toLane="0"/>

    <connection from="-172851201#0" to="172851197" fromLane="0" toLane="0"/>
    <connection from="-172851201#0" to="-23074984#6" fromLane="0" toLane="0"/>
    <connection from="-172851201#0" to="172851201#0" fromLane="0" toLane="0"/>

    <connection from="-172851201#1" to="454013120#9" fromLane="0" toLane="0"/>
    <connection from="-172851201#1" to="-172851201#0" fromLane="0" toLane="0"/>
    <connection from="-172851201#1" to="-454013120#8" fromLane="0" toLane="1"/>
    <connection from="-172851201#1" to="172851201#1" fromLane="0" toLane="0"/>

    <connection from="-172851207" to="454013120#4" fromLane="0" toLane="0"/>
    <connection from="-172851207" to="-38042628#26" fromLane="0" toLane="1"/>
    <connection from="-172851207" to="-454013120#3" fromLane="0" toLane="1"/>
    <connection from="-172851207" to="172851207" fromLane="0" toLane="0"/>

    <connection from="-172851208#0" to="-38042628#10" fromLane="0" toLane="0"/>
    <connection from="-172851208#0" to="38042628#11" fromLane="0" toLane="1"/>
    <connection from="-172851208#0" to="172851208#0" fromLane="0" toLane="0"/>

    <connection from="-172851208#1" to="-172851199#3" fromLane="0" toLane="0"/>
    <connection from="-172851208#1" to="-172851208#0" fromLane="0" toLane="0"/>
    <connection from="-172851208#1" to="172851208#1" fromLane="0" toLane="0"/>

    <connection from="-172851208#10" to="23132957#9" fromLane="0" toLane="0"/>
    <connection from="-172851208#10" to="-172851208#9" fromLane="0" toLane="0"/>
    <connection from="-172851208#10" to="-23132957#8" fromLane="0" toLane="0"/>
    <connection from="-172851208#10" to="172851208#10" fromLane="0" toLane="0"/>

    <connection from="-172851208#11" to="133337051#1" fromLane="0" toLane="0"/>
    <connection from="-172851208#11" to="-172851208#10" fromLane="0" toLane="0"/>
    <connection from="-172851208#11" to="-133337051#0" fromLane="0" toLane="0"/>
    <connection from="-172851208#11" to="172851208#11" fromLane="0" toLane="0"/>

    <connection from="-172851208#12" to="-172851208#11" fromLane="0" toLane="0"/>