<?xml version="1.0" encoding="UTF-8"?>

<!-- generated on Mon Jan 23 00:52:43 2017 by SUMO netconvert Version 0.19.0
<?xml version="1.0" encoding="UTF-8"?>

<configuration xmlns:xsi="http://www.w3.org/2001/XMLSchema-instance" xsi:noNamespaceSchemaLocation="http://sumo-sim.org/xsd/netconvertConfiguration.xsd">

    <input>
        <sumo-net-file value="bangalore.net.xml"/>
    </input>

    <output>
        <plain-output-prefix value="bangalore"/>
    </output>

    <processing>
        <no-turnarounds value="true"/>
        <offset.disable-normalization value="true"/>
    </processing>

</configuration>
-->

<edges version="0.13" xmlns:xsi="http://www.w3.org/2001/XMLSchema-instance" xsi:noNamespaceSchemaLocation="http://sumo-sim.org/xsd/edges_file.xsd">
    <edge id="-133235120#0" from="1466350486" to="1466350488" priority="4" type="highway.residential" numLanes="1" speed="13.89"/>
    <edge id="-133235120#1" from="1564747827" to="1466350486" priority="4" type="highway.residential" numLanes="1" speed="13.89"/>
    <edge id="-133235120#2" from="1466350487" to="1564747827" priority="4" type="highway.residential" numLanes="1" speed="13.89"/>
    <edge id="-133235120#3" from="1466350485" to="1466350487" priority="4" type="highway.residential" numLanes="1" speed="13.89"/>
    <edge id="-133235173#0" from="1838656439" to="249775749" priority="4" type="highway.residential" numLanes="1" speed="13.89"/>
    <edge id="-133235173#1" from="303959801" to="1838656439" priority="4" type="highway.residential" numLanes="1" speed="13.89"/>
    <edge id="-133235173#2" from="1466369202" to="303959801" priority="4" type="highway.residential" numLanes="1" speed="13.89"/>
    <edge id="-133235641#0" from="1466400287" to="249775752" priority="4" type="highway.residential" numLanes="1" speed="13.89"/>
    <edge id="-133235641#1" from="249070836" to="1466400287" priority="4" type="highway.residential" numLanes="1" speed="13.89"/>
    <edge id="-133235641#2" from="248810129" to="249070836" priority="4" type="highway.residential" numLanes="1" speed="13.89"/>
    <edge id="-133235641#3" from="1466400285" to="248810129" priority="4" type="highway.residential" numLanes="1" speed="13.89"/>
    <edge id="-133235641#4" from="1466400299" to="1466400285" priority="4" type="highway.residential" numLanes="1" speed="13.89"/>
    <edge id="-133337048" from="249776012" to="249775975" priority="4" type="highway.residential" numLanes="1" speed="13.89"/>
    <edge id="-133337050" from="248810130" to="1467750612" priority="4" type="highway.residential" numLanes="1" speed="13.89"/>
    <edge id="-133337051#0" from="1467750643" to="1467750633" priority="4" type="highway.residential" numLanes="1" speed="13.89"/>
    <edge id="-133337051#1" from="1467750622" to="1467750643" priority="4" type="highway.residential" numLanes="1" speed="13.89" shape="757.24,936.92 787.01,938.69 835.36,935.19 842.70,929.34"/>
    <edge id="-133337051#2" from="1467750616" to="1467750622" priority="4" type="highway.residential" numLanes="1" speed="13.89"/>
    <edge id="-133337051#3" from="1467750625" to="1467750616" priority="4" type="highway.residential" numLanes="1" speed="13.89"/>
    <edge id="-133337051#4" from="1467750645" to="1467750625" priority="4" type="highway.residential" numLanes="1" speed="13.89" shape="412.59,961.52 525.53,935.78 545.54,931.86 567.32,931.11"/>
    <edge id="-133337051#5" from="3496616936" to="1467750645" priority="4" type="highway.residential" numLanes="1" speed="13.89"/>
    <edge id="-133337053#0" from="1467750632" to="1467750630" priority="4" type="highway.residential" numLanes="1" speed="13.89"/>
    <edge id="-133337053#1" from="1467750646" to="1467750632" priority="4" type="highway.residential" numLanes="1" speed="13.89"/>
    <edge id="-133337474" from="1467757963" to="1467757957" priority="4" type="highway.residential" numLanes="1" speed="13.89"/>
    <edge id="-133337475" from="1467757960" to="1467757948" priority="4" type="highway.residential" numLanes="1" speed="13.89"/>
    <edge id="-133337478#0" from="1467757952" to="1467757965" priority="4" type="highway.residential" numLanes="1" speed="13.89"/>
    <edge id="-133337478#1" from="248777037" to="1467757952" priority="4" type="highway.residential" numLanes="1" speed="13.89" shape="769.12,854.89 806.48,848.83 848.53,840.23"/>
    <edge id="-133337478#2" from="1467757966" to="248777037" priority="4" type="highway.residential" numLanes="1" speed="13.89" shape="682.36,850.45 730.65,851.38 769.12,854.89"/>
    <edge id="-133337478#3" from="1467757951" to="1467757966" priority="4" type="highway.residential" numLanes="1" speed="13.89" shape="523.81,857.35 566.85,846.96 682.36,850.45"/>
    <edge id="-133337692#0" from="248810166" to="248810165" priority="5" type="highway.unclassified" numLanes="1" speed="22.22" shape="653.68,700.72 672.81,767.47 684.23,809.73"/>
    <edge id="-133337692#1" from="1467794481" to="248810166" priority="5" type="highway.unclassified" numLanes="1" speed="22.22"/>
    <edge id="-133337692#2" from="1467794499" to="1467794481" priority="5" type="highway.unclassified" numLanes="1" speed="22.22"/>
    <edge id="-133337692#3" from="248810168" to="1467794499" priority="5" type="highway.unclassified" numLanes="1" speed="22.22"/>
    <edge id="-133337692#4" from="1467767183" to="248810168" priority="5" type="highway.unclassified" numLanes="1" speed="22.22" shape="588.18,539.79 601.31,579.64 620.14,574.08"/>
    <edge id="-133337692#5" from="1467794504" to="1467767183" priority="5" type="highway.unclassified" numLanes="1" speed="22.22"/>
    <edge id="-133337692#6" from="1467794478" to="1467794504" priority="5" type="highway.unclassified" numLanes="1" speed="22.22"/>
    <edge id="-133337692#7" from="1467794480" to="1467794478" priority="5" type="highway.unclassified" numLanes="1" speed="22.22"/>
    <edge id="-133337692#8" from="1467794498" to="1467794480" priority="5" type="highway.unclassified" numLanes="1" speed="22.22"/>
    <edge id="-133338005#0" from="1467767988" to="1467767984" priority="4" type="highway.residential" numLanes="1" speed="13.89"/>
    <edge id="-133338005#1" from="cluster_1467767990_1467794470" to="1467767988" priority="4" type="highway.residential" numLanes="1" speed="13.89" shape="706.07,589.41 727.38,687.83"/>
    <edge id="-133339458#0" from="1467794503" to="1467794514" priority="4" type="highway.residential" numLanes="1" speed="13.89"/>
    <edge id="-133339458#1" from="1467794486" to="1467794503" priority="4" type="highway.residential" numLanes="1" speed="13.89"/>
    <edge id="-133339459#0" from="1467794473" to="1467794455" priority="4" type="highway.residential" numLanes="1" speed="13.89"/>
    <edge id="-133339459#1" from="1467794467" to="1467794473" priority="4" type="highway.residential" numLanes="1" speed="13.89"/>
    <edge id="-133339460#0" from="1467794503" to="1467794481" priority="4" type="highway.residential" numLanes="1" speed="13.89"/>
    <edge id="-133339460#1" from="1467794511" to="1467794503" priority="4" type="highway.residential" numLanes="1" speed="13.89" shape="534.40,668.56 542.49,666.86 563.29,662.50 602.06,652.35"/>
    <edge id="-133339461#0" from="1467794477" to="1467794466" priority="4" type="highway.residential" numLanes="1" speed="13.89"/>
    <edge id="-133339461#1" from="1467794506" to="1467794477" priority="4" type="highway.residential" numLanes="1" speed="13.89"/>
    <edge id="-133339462#0" from="1467794515" to="1467794495" priority="4" type="highway.residential" numLanes="1" speed="13.89"/>
    <edge id="-133339462#1" from="1467767986" to="1467794515" priority="4" type="highway.residential" numLanes="1" speed="13.89"/>
    <edge id="-133339462#2" from="cluster_1467767990_1467794470" to="1467767986" priority="4" type="highway.residential" numLanes="1" speed="13.89" shape="703.00,579.94 734.73,569.31"/>
    <edge id="-133339462#4" from="1467767188" to="cluster_1467767990_1467794470" priority="4" type="highway.residential" numLanes="1" speed="13.89" shape="660.83,600.03 706.07,589.41"/>
    <edge id="-133339462#5" from="1467794499" to="1467767188" priority="4" type="highway.residential" numLanes="1" speed="13.89"/>
    <edge id="-133339462#6" from="1467794486" to="1467794499" priority="4" type="highway.residential" numLanes="1" speed="13.89"/>
    <edge id="-133339462#7" from="1467794520" to="1467794486" priority="4" type="highway.residential" numLanes="1" speed="13.89" shape="533.69,637.04 571.07,628.16 594.07,621.92"/>
    <edge id="-133339463" from="1467794507" to="1467794518" priority="4" type="highway.residential" numLanes="1" speed="13.89"/>
    <edge id="-133339464" from="1467794472" to="248810168" priority="4" type="highway.residential" numLanes="1" speed="13.89"/>
    <edge id="-133339465#0" from="1467794467" to="1467794477" priority="4" type="highway.residential" numLanes="1" speed="13.89"/>
    <edge id="-133339465#1" from="1467794464" to="1467794467" priority="4" type="highway.residential" numLanes="1" speed="13.89"/>
    <edge id="-133339466#0" from="1467794493" to="1467794458" priority="4" type="highway.residential" numLanes="1" speed="13.89"/>
    <edge id="-133339466#1" from="1467794515" to="1467794493" priority="4" type="highway.residential" numLanes="1" speed="13.89" shape="778.60,556.67 796.14,640.94 804.46,670.53"/>
    <edge id="-133339468#0" from="2421937751" to="1467794457" priority="4" type="highway.residential" numLanes="1" speed="13.89"/>
    <edge id="-133339468#1" from="1467794519" to="2421937751" priority="4" type="highway.residential" numLanes="1" speed="13.89"/>
    <edge id="-133339470#0" from="249776852" to="2421937759" priority="4" type="highway.residential" numLanes="1" speed="13.89" shape="788.77,403.98 853.04,388.86 902.74,378.05"/>
    <edge id="-133339470#1" from="1467767991" to="249776852" priority="4" type="highway.residential" numLanes="1" speed="13.89"/>
    <edge id="-133339470#2" from="1467794478" to="1467767991" priority="4" type="highway.residential" numLanes="1" speed="13.89"/>
    <edge id="-133339470#3" from="1467794506" to="1467794478" priority="4" type="highway.residential" numLanes="1" speed="13.89"/>
    <edge id="-133339470#4" from="1467794473" to="1467794506" priority="4" type="highway.residential" numLanes="1" speed="13.89"/>
    <edge id="-133339471#0" from="1467794459" to="1467794465" priority="4" type="highway.residential" numLanes="1" speed="13.89"/>
    <edge id="-133339471#1" from="1467794504" to="1467794459" priority="4" type="highway.residential" numLanes="1" speed="13.89"/>
    <edge id="-133339472" from="cluster_1467794474_1467794479" to="1467794517" priority="4" type="highway.residential" numLanes="1" speed="13.89" shape="809.74,523.78 699.60,559.14"/>
    <edge id="-133339473#0" from="249776418" to="2421937738" priority="4" type="highway.residential" numLanes="1" speed="13.89"/>
    <edge id="-133339473#1" from="1467767989" to="249776418" priority="4" type="highway.residential" numLanes="1" speed="13.89" shape="651.56,413.89 696.08,397.85 777.96,377.19"/>
    <edge id="-133339473#2" from="1467794480" to="1467767989" priority="4" type="highway.residential" numLanes="1" speed="13.89"/>
    <edge id="-133339474#0" from="2421937790" to="1467794512" priority="4" type="highway.residential" numLanes="1" speed="13.89" shape="599.37,401.86 606.21,401.76 682.99,382.67 770.80,359.89"/>
    <edge id="-133339474#1" from="1467794466" to="2421937790" priority="4" type="highway.residential" numLanes="1" speed="13.89" shape="526.23,415.26 594.27,401.94 599.37,401.86"/>
    <edge id="-133339474#2" from="1467794461" to="1467794466" priority="4" type="highway.residential" numLanes="1" speed="13.89"/>
    <edge id="-133339476" from="cluster_1467794474_1467794479" to="1467794501" priority="4" type="highway.residential" numLanes="1" speed="13.89" shape="805.60,505.86 690.74,539.22"/>
    <edge id="-133599364" from="1470553341" to="1470553314" priority="4" type="highway.residential" numLanes="1" speed="13.89" shape="1037.19,901.16 1101.75,895.69 1172.35,891.34"/>
    <edge id="-134795976#0" from="1467794517" to="cluster_1467767990_1467794470" priority="4" type="highway.residential" numLanes="1" speed="13.89" shape="699.60,559.14 703.00,579.94"/>
    <edge id="-134795976#1" from="1467794472" to="1467794517" priority="4" type="highway.residential" numLanes="1" speed="13.89"/>
    <edge id="-134795976#2" from="1467794501" to="1467794472" priority="4" type="highway.residential" numLanes="1" speed="13.89"/>
    <edge id="-134795976#3" from="249071026" to="1467794501" priority="4" type="highway.residential" numLanes="1" speed="13.89"/>
    <edge id="-134795976#4" from="1467794459" to="249071026" priority="4" type="highway.residential" numLanes="1" speed="13.89"/>
    <edge id="-134795976#5" from="1467767991" to="1467794459" priority="4" type="highway.residential" numLanes="1" speed="13.89"/>
    <edge id="-134795976#6" from="1467767989" to="1467767991" priority="4" type="highway.residential" numLanes="1" speed="13.89"/>
    <edge id="-143031164#0" from="1836940037" to="249775831" priority="4" type="highway.residential" numLanes="1" speed="13.89"/>
    <edge id="-143031164#1" from="249775928" to="1836940037" priority="4" type="highway.residential" numLanes="1" speed="13.89"/>
    <edge id="-143031164#2" from="249775795" to="249775928" priority="4" type="highway.residential" numLanes="1" speed="13.89"/>
    <edge id="-143031545#0" from="1466369206" to="1466369202" priority="4" type="highway.residential" numLanes="1" speed="13.89"/>
    <edge id="-143031545#1" from="249070837" to="1466369206" priority="4" type="highway.residential" numLanes="1" speed="13.89"/>
    <edge id="-143031545#2" from="248810128" to="249070837" priority="4" type="highway.residential" numLanes="1" speed="13.89"/>
    <edge id="-143031545#3" from="1466369200" to="248810128" priority="4" type="highway.residential" numLanes="1" speed="13.89"/>
    <edge id="-143031545#4" from="1466369213" to="1466369200" priority="4" type="highway.residential" numLanes="1" speed="13.89"/>
    <edge id="-143031545#5" from="3148782128" to="1466369213" priority="4" type="highway.residential" numLanes="1" speed="13.89" shape="639.75,993.17 631.12,998.57 628.22,1037.63 622.44,1072.71 670.56,1073.24"/>
    <edge id="-143031545#6" from="1467750640" to="3148782128" priority="4" type="highway.residential" numLanes="1" speed="13.89"/>
    <edge id="-172845846" from="1467767986" to="248810256" priority="5" type="highway.unclassified" numLanes="1" speed="22.22"/>
    <edge id="-172851197" from="1836983154" to="1836983131" priority="5" type="highway.unclassified" numLanes="1" speed="22.22" shape="12.38,1141.04 144.88,1147.94 206.14,1144.32 299.51,1106.63 439.49,1046.52"/>
    <edge id="-172851199#0" from="1467794455" to="1836983067" priority="5" type="highway.unclassified" numLanes="1" speed="22.22"/>
    <edge id="-172851199#1" from="1467767183" to="1467794455" priority="5" type="highway.unclassified" numLanes="1" speed="22.22"/>
    <edge id="-172851199#2" from="249071026" to="1467767183" priority="5" type="highway.unclassified" numLanes="1" speed="22.22" shape="682.75,507.25 619.90,528.13 588.18,539.79"/>
    <edge id="-172851199#3" from="248810329" to="249071026" priority="5" type="highway.unclassified" numLanes="1" speed="22.22"/>
    <edge id="-172851201#0" from="1836940042" to="1836983131" priority="5" type="highway.unclassified" numLanes="1" speed="22.22" shape="510.53,1155.70 482.52,1088.18 458.19,1050.29 439.49,1046.52"/>
    <edge id="-172851201#1" from="249070974" to="1836940042" priority="5" type="highway.unclassified" numLanes="1" speed="22.22" shape="504.53,1339.72 505.04,1296.81 506.84,1249.67 509.88,1203.69 510.53,1155.70"/>
    <edge id="-172851207" from="248838858" to="249070838" priority="5" type="highway.unclassified" numLanes="1" speed="22.22"/>
    <edge id="-172851208#0" from="248810329" to="249071028" priority="5" type="highway.unclassified" numLanes="1" speed="22.22"/>
    <edge id="-172851208#1" from="cluster_1467794474_1467794479" to="248810329" priority="5" type="highway.unclassified" numLanes="1" speed="22.22" shape="805.60,505.86 792.82,475.79"/>
    <edge id="-172851208#10" from="1467750643" to="1467750638" priority="5" type="highway.unclassified" numLanes="1" speed="22.22"/>
    <edge id="-172851208#11" from="248810130" to="1467750643" priority="5" type="highway.unclassified" numLanes="1" speed="22.22"/>
    <edge id="-172851208#12" from="248810129" to="248810130" priority="5" type="highway.unclassified" numLanes="1" speed="22.22"/>
    <edge id="-172851208#13" from="248810128" to="248810129" priority="5" type="highway.unclassified" numLanes="1" speed="22.22"/>
    <edge id="-172851208#14" from="1466350486" to="248810128" priority="5" type="highway.unclassified" numLanes="1" speed="22.22"/>
    <edge id="-172851208#15" from="248810127" to="1466350486" priority="5" type="highway.unclassified" numLanes="1" speed="22.22"/>
    <edge id="-172851208#16" from="248810124" to="248810127" priority="5" type="highway.unclassified" numLanes="1" speed="22.22" shape="827.88,1351.74 828.82,1307.13 830.40,1260.37 829.75,1216.53 829.63,1169.12"/>
    <edge id="-172851208#3" from="1467794495" to="cluster_1467794474_1467794479" priority="5" type="highway.unclassified" numLanes="1" speed="22.22" shape="814.96,542.61 811.20,526.73 809.74,523.78"/>
    <edge id="-172851208#4" from="248810135" to="1467794495" priority="5" type="highway.unclassified" numLanes="1" speed="22.22"/>
    <edge id="-172851208#5" from="1467757949" to="248810135" priority="5" type="highway.unclassified" numLanes="1" speed="22.22"/>
    <edge id="-172851208#6" from="1467757960" to="1467757949" priority="5" type="highway.unclassified" numLanes="1" speed="22.22"/>
    <edge id="-172851208#7" from="1467757957" to="1467757960" priority="5" type="highway.unclassified" numLanes="1" speed="22.22"/>
    <edge id="-172851208#8" from="1467757952" to="1467757957" priority="5" type="highway.unclassified" numLanes="1" speed="22.22"/>
    <edge id="-172851208#9" from="1467750638" to="1467757952" priority="5" type="highway.unclassified" numLanes="1" speed="22.22"/>
    <edge id="-172851209" from="1467767188" to="1467767186" priority="5" type="highway.unclassified" numLanes="1" speed="22.22"/>
    <edge id="-173039111" from="1838656433" to="1838656434" priority="5" type="highway.unclassified" numLanes="1" speed="22.22"/>
    <edge id="-173039113#0" from="1838656441" to="1838656442" priority="5" type="highway.unclassified" numLanes="1" speed="22.22"/>
    <edge id="-173039113#1" from="1838656440" to="1838656441" priority="5" type="highway.unclassified" numLanes="1" speed="22.22"/>
    <edge id="-173039113#2" from="3148770476" to="1838656440" priority="5" type="highway.unclassified" numLanes="1" speed="22.22" shape="1423.64,1127.37 1358.58,1127.72 1303.03,1127.58"/>
    <edge id="-173039113#3" from="3148770477" to="3148770476" priority="5" type="highway.unclassified" numLanes="1" speed="22.22"/>
    <edge id="-173039114#0" from="1838656436" to="249776627" priority="5" type="highway.unclassified" numLanes="1" speed="22.22"/>
    <edge id="-173039114#1" from="1838656437" to="1838656436" priority="5" type="highway.unclassified" numLanes="1" speed="22.22"/>
    <edge id="-173039115#0" from="303959798" to="249776635" priority="5" type="highway.unclassified" numLanes="1" speed="22.22"/>
    <edge id="-173039115#1" from="1838656432" to="303959798" priority="5" type="highway.unclassified" numLanes="1" speed="22.22"/>
    <edge id="-173039117#0" from="1838656434" to="1838656436" priority="5" type="highway.unclassified" numLanes="1" speed="22.22"/>
    <edge id="-173039117#1" from="1838656432" to="1838656434" priority="5" type="highway.unclassified" numLanes="1" speed="22.22"/>
    <edge id="-173039117#2" from="249776659" to="1838656432" priority="5" type="highway.unclassified" numLanes="1" speed="22.22"/>
    <edge id="-173039118#0" from="1470553314" to="249775953" priority="5" type="highway.unclassified" numLanes="1" speed="22.22"/>
    <edge id="-173039118#1" from="249775831" to="1470553314" priority="5" type="highway.unclassified" numLanes="1" speed="22.22"/>
    <edge id="-173039118#2" from="2421938355" to="249775831" priority="5" type="highway.unclassified" numLanes="1" speed="22.22"/>
    <edge id="-173039118#3" from="249775829" to="2421938355" priority="5" type="highway.unclassified" numLanes="1" speed="22.22" shape="1214.96,1041.79 1208.76,1026.16 1199.88,1010.25 1190.15,967.31"/>
    <edge id="-173039118#4" from="1838656439" to="249775829" priority="5" type="highway.unclassified" numLanes="1" speed="22.22"/>
    <edge id="-173039118#5" from="1838656441" to="1838656439" priority="5" type="highway.unclassified" numLanes="1" speed="22.22"/>
    <edge id="-173039118#6" from="1838656443" to="1838656441" priority="5" type="highway.unclassified" numLanes="1" speed="22.22"/>
    <edge id="-212982960" from="249775705" to="2227583873" priority="4" type="highway.residential" numLanes="1" speed="13.89"/>
    <edge id="-212982968" from="2227583836" to="2227583850" priority="4" type="highway.residential" numLanes="1" speed="13.89"/>
    <edge id="-212982997#0" from="248809813" to="2227583876" priority="4" type="highway.residential" numLanes="1" speed="13.89" shape="1300.07,1280.48 1374.29,1328.35 1398.96,1344.52 1428.24,1361.23 1518.01,1364.01"/>
    <edge id="-212982997#1" from="2227583850" to="248809813" priority="4" type="highway.residential" numLanes="1" speed="13.89" shape="1195.03,1207.09 1210.85,1223.39 1235.52,1242.82 1268.29,1260.21 1300.07,1280.48"/>
    <edge id="-212982997#2" from="2227583842" to="2227583850" priority="4" type="highway.residential" numLanes="1" speed="13.89" shape="1120.30,1195.91 1135.48,1203.95 1146.62,1189.53 1167.52,1200.73 1195.03,1207.09"/>
    <edge id="-23058211#0" from="2421937732" to="1836983047" priority="5" type="highway.unclassified" numLanes="1" speed="22.22"/>
    <edge id="-23058211#1" from="248809057" to="2421937732" priority="5" type="highway.unclassified" numLanes="1" speed="22.22"/>
    <edge id="-23058363#0" from="248810158" to="503975983" priority="5" type="highway.unclassified" numLanes="1" speed="22.22" shape="667.23,1162.60 664.94,1209.80 661.86,1255.90 660.06,1302.38 658.81,1346.15 658.38,1392.13 665.66,1432.82 745.97,1511.05"/>
    <edge id="-23058363#1" from="1466350487" to="248810158" priority="5" type="highway.unclassified" numLanes="1" speed="22.22"/>
    <edge id="-23058363#10" from="1467794507" to="248810165" priority="5" type="highway.unclassified" numLanes="1" speed="22.22" shape="691.59,760.45 689.30,779.15 684.23,809.73"/>
    <edge id="-23058363#11" from="1467767186" to="1467794507" priority="5" type="highway.unclassified" numLanes="1" speed="22.22" shape="689.14,692.41 696.97,737.63 691.59,760.45"/>
    <edge id="-23058363#2" from="1466369213" to="1466350487" priority="5" type="highway.unclassified" numLanes="1" speed="22.22"/>
    <edge id="-23058363#3" from="1466400299" to="1466369213" priority="5" type="highway.unclassified" numLanes="1" speed="22.22"/>
    <edge id="-23058363#4" from="1467750640" to="1466400299" priority="5" type="highway.unclassified" numLanes="1" speed="22.22"/>
    <edge id="-23058363#5" from="1467750632" to="1467750640" priority="5" type="highway.unclassified" numLanes="1" speed="22.22"/>
    <edge id="-23058363#6" from="1467750616" to="1467750632" priority="5" type="highway.unclassified" numLanes="1" speed="22.22"/>
    <edge id="-23058363#7" from="1467750626" to="1467750616" priority="5" type="highway.unclassified" numLanes="1" speed="22.22"/>
    <edge id="-23058363#8" from="1467757966" to="1467750626" priority="5" type="highway.unclassified" numLanes="1" speed="22.22"/>
    <edge id="-23058363#9" from="248810165" to="1467757966" priority="5" type="highway.unclassified" numLanes="1" speed="22.22"/>
    <edge id="-23058373#0" from="2421938221" to="1836983094" priority="5" type="highway.unclassified" numLanes="1" speed="22.22"/>
    <edge id="-23058373#1" from="1467794514" to="2421938221" priority="5" type="highway.unclassified" numLanes="1" speed="22.22" shape="616.91,708.72 594.18,713.18 509.96,741.99 507.58,742.72"/>
    <edge id="-23058373#2" from="248810166" to="1467794514" priority="5" type="highway.unclassified" numLanes="1" speed="22.22" shape="653.68,700.72 624.52,707.77 616.91,708.72"/>
    <edge id="-23058373#3" from="1467767186" to="248810166" priority="5" type="highway.unclassified" numLanes="1" speed="22.22"/>
    <edge id="-23058373#4" from="1467767988" to="1467767186" priority="5" type="highway.unclassified" numLanes="1" speed="22.22"/>
    <edge id="-23058373#5" from="248810256" to="1467767988" priority="5" type="highway.unclassified" numLanes="1" speed="22.22"/>
    <edge id="-23058373#6" from="1467794493" to="248810256" priority="5" type="highway.unclassified" numLanes="1" speed="22.22"/>
    <edge id="-23058373#7" from="248810135" to="1467794493" priority="5" type="highway.unclassified" numLanes="1" speed="22.22"/>
    <edge id="-23058373#8" from="248810257" to="248810135" priority="5" type="highway.unclassified" numLanes="1" speed="22.22"/>
    <edge id="-23058382#0" from="1836983067" to="1836983081" priority="6" type="highway.tertiary" numLanes="1" speed="22.22" shape="465.19,578.77 459.48,583.25 444.17,591.51 402.69,617.24 321.70,659.00 316.63,672.05 317.67,691.30"/>
    <edge id="-23058382#1" from="1467794464" to="1836983067" priority="6" type="highway.tertiary" numLanes="1" speed="22.22"/>
    <edge id="-23058382#2" from="1467794461" to="1467794464" priority="6" type="highway.tertiary" numLanes="1" speed="22.22"/>
    <edge id="-23058382#3" from="1467794519" to="1467794461" priority="6" type="highway.tertiary" numLanes="1" speed="22.22"/>
    <edge id="-23058382#4" from="1836983047" to="1467794519" priority="6" type="highway.tertiary" numLanes="1" speed="22.22"/>
    <edge id="-23058382#5" from="249080855" to="1836983047" priority="6" type="highway.tertiary" numLanes="1" speed="22.22"/>
    <edge id="-23058382#6" from="1741253817" to="249080855" priority="6" type="highway.tertiary" numLanes="1" speed="22.22" shape="444.60,234.06 454.70,288.48 417.09,296.92 420.54,319.04 422.79,330.15 426.42,351.53"/>
    <edge id="-23074984#0" from="1836983094" to="1836983081" priority="5" type="highway.unclassified" numLanes="1" speed="22.22"/>
    <edge id="-23074984#1" from="2421938284" to="1836983094" priority="5" type="highway.unclassified" numLanes="1" speed="22.22"/>
    <edge id="-23074984#2" from="2421938331" to="2421938284" priority="5" type="highway.unclassified" numLanes="1" speed="22.22" shape="391.94,904.51 386.89,890.34 369.80,841.93 364.34,827.96"/>
    <edge id="-23074984#3" from="1467750627" to="2421938331" priority="5" type="highway.unclassified" numLanes="1" speed="22.22"/>
    <edge id="-23074984#4" from="1467750645" to="1467750627" priority="5" type="highway.unclassified" numLanes="1" speed="22.22"/>
    <edge id="-23074984#5" from="3148782118" to="1467750645" priority="5" type="highway.unclassified" numLanes="1" speed="22.22"/>
    <edge id="-23074984#6" from="1836983131" to="3148782118" priority="5" type="highway.unclassified" numLanes="1" speed="22.22"/>
    <edge id="-23132899#0" from="304066669" to="249775483" priority="5" type="highway.unclassified" numLanes="1" speed="22.22"/>
    <edge id="-23132899#1" from="248809811" to="304066669" priority="5" type="highway.unclassified" numLanes="1" speed="22.22"/>
    <edge id="-23132899#2" from="1838656443" to="248809811" priority="5" type="highway.unclassified" numLanes="1" speed="22.22"/>
    <edge id="-23132899#3" from="2227583836" to="1838656443" priority="5" type="highway.unclassified" numLanes="1" speed="22.22"/>
    <edge id="-23132899#4" from="249775597" to="2227583836" priority="5" type="highway.unclassified" numLanes="1" speed="22.22"/>
    <edge id="-23132905#0" from="304066669" to="503976015" priority="5" type="highway.unclassified" numLanes="1" speed="22.22" shape="1422.62,1167.28 1422.45,1207.03 1422.31,1240.59 1422.13,1282.23 1422.07,1319.86"/>
    <edge id="-23132905#1" from="3148770476" to="304066669" priority="5" type="highway.unclassified" numLanes="1" speed="22.22"/>
    <edge id="-23132905#2" from="249775529" to="3148770476" priority="5" type="highway.unclassified" numLanes="1" speed="22.22" shape="1424.83,1081.04 1423.72,1124.59 1423.64,1127.37"/>
    <edge id="-23132905#3" from="249776627" to="249775529" priority="5" type="highway.unclassified" numLanes="1" speed="22.22"/>
    <edge id="-23132905#4" from="1838656433" to="249776627" priority="5" type="highway.unclassified" numLanes="1" speed="22.22"/>
    <edge id="-23132905#5" from="303959798" to="1838656433" priority="5" type="highway.unclassified" numLanes="1" speed="22.22"/>
    <edge id="-23132905#6" from="249776646" to="303959798" priority="5" type="highway.unclassified" numLanes="1" speed="22.22"/>
    <edge id="-23132905#7" from="303959800" to="249776646" priority="5" type="highway.unclassified" numLanes="1" speed="22.22"/>
    <edge id="-23132905#8" from="2421938227" to="303959800" priority="5" type="highway.unclassified" numLanes="1" speed="22.22"/>
    <edge id="-23132922#0" from="2421938357" to="1836940037" priority="5" type="highway.unclassified" numLanes="1" speed="22.22"/>
    <edge id="-23132922#1" from="249775801" to="2421938357" priority="5" type="highway.unclassified" numLanes="1" speed="22.22"/>
    <edge id="-23132922#2" from="303959801" to="249775801" priority="5" type="highway.unclassified" numLanes="1" speed="22.22"/>
    <edge id="-23132922#3" from="1838656442" to="303959801" priority="5" type="highway.unclassified" numLanes="1" speed="22.22"/>
    <edge id="-23132922#4" from="249775597" to="1838656442" priority="5" type="highway.unclassified" numLanes="1" speed="22.22"/>
    <edge id="-23132922#5" from="2227583842" to="249775597" priority="5" type="highway.unclassified" numLanes="1" speed="22.22"/>