<?xml version="1.0" encoding="UTF-8"?>

<!-- generated on Mon Jan 23 00:25:10 2017 by SUMO netconvert Version 0.19.0
<?xml version="1.0" encoding="UTF-8"?>

<configuration xmlns:xsi="http://www.w3.org/2001/XMLSchema-instance" xsi:noNamespaceSchemaLocation="http://sumo-sim.org/xsd/netconvertConfiguration.xsd">

    <input>
        <osm-files value="map.osm"/>
    </input>

    <output>
        <output-file value="bangalore.net.xml"/>
    </output>

    <projection>
        <proj.utm value="true"/>
    </projection>

    <tls_building>
        <tls.discard-simple value="true"/>
        <tls.join value="true"/>
    </tls_building>

    <ramp_guessing>
        <ramps.guess value="true"/>
    </ramp_guessing>

    <processing>
        <geometry.remove value="true"/>
        <roundabouts.guess value="true"/>
        <junctions.join value="true"/>
    </processing>

</configuration>
-->

<net version="0.13" xmlns:xsi="http://www.w3.org/2001/XMLSchema-instance" xsi:noNamespaceSchemaLocation="http://sumo-sim.org/xsd/net_file.xsd">

    <location netOffset="-777744.08,-1430478.50" convBoundary="0.00,0.00,1524.91,1822.78" origBoundary="77.559737,12.927146,77.573854,12.943632" projParameter="+proj=utm +zone=43 +ellps=WGS84 +datum=WGS84 +units=m +no_defs"/>

    <edge id=":1466350485_0" function="internal">
        <lane id=":1466350485_0_0" index="0" speed="13.89" length="4.82" shape="625.83,1114.84 624.69,1113.89 624.37,1113.02 624.86,1112.25 626.18,1111.56"/>
    </edge>
    <edge id=":1466350486_0" function="internal">
        <lane id=":1466350486_0_0" index="0" speed="18.06" length="5.72" shape="842.59,1125.45 841.23,1125.60 840.16,1126.25 839.38,1127.40 838.88,1129.03"/>
    </edge>
    <edge id=":1466350486_1" function="internal">
        <lane id=":1466350486_1_0" index="0" speed="13.89" length="9.71" shape="842.59,1125.45 832.89,1125.00"/>
    </edge>
    <edge id=":1466350486_2" function="internal">
        <lane id=":1466350486_2_0" index="0" speed="18.06" length="10.27" shape="842.59,1125.45 839.97,1124.88 838.08,1123.56 836.90,1121.47 836.45,1118.62"/>
    </edge>
    <edge id=":1466350486_3" function="internal">
        <lane id=":1466350486_3_0" index="0" speed="13.89" length="4.82" shape="842.59,1125.45 841.41,1124.55 841.05,1123.70 841.51,1122.90 842.80,1122.16"/>
    </edge>
    <edge id=":1466350486_4" function="internal">
        <lane id=":1466350486_4_0" index="0" speed="18.06" length="5.30" shape="839.75,1118.53 839.98,1120.05 840.56,1121.16 841.50,1121.86 842.80,1122.16"/>
    </edge>
    <edge id=":1466350486_5" function="internal">
        <lane id=":1466350486_5_0" index="0" speed="22.22" length="10.58" shape="839.75,1118.53 839.80,1121.59 839.71,1123.81 839.42,1126.02 838.88,1129.03"/>
    </edge>
    <edge id=":1466350486_6" function="internal">
        <lane id=":1466350486_6_0" index="0" speed="18.06" length="7.82" shape="839.75,1118.53 839.39,1121.45 838.13,1123.50 835.96,1124.68"/>
    </edge>
    <edge id=":1466350486_7" function="internal">
        <lane id=":1466350486_7_0" index="0" speed="22.22" length="2.41" shape="839.75,1118.53 838.96,1119.79 838.15,1120.22"/>
    </edge>
    <edge id=":1466350486_16" function="internal">
        <lane id=":1466350486_16_0" index="0" speed="18.06" length="3.09" shape="835.96,1124.68 832.89,1125.00"/>
    </edge>
    <edge id=":1466350486_17" function="internal">
        <lane id=":1466350486_17_0" index="0" speed="22.22" length="2.41" shape="838.15,1120.22 837.31,1119.84 836.45,1118.62"/>
    </edge>
    <edge id=":1466350486_8" function="internal">
        <lane id=":1466350486_8_0" index="0" speed="18.06" length="5.35" shape="833.00,1121.71 834.54,1121.55 835.63,1120.99 836.27,1120.01 836.45,1118.62"/>
    </edge>
    <edge id=":1466350486_9" function="internal">
        <lane id=":1466350486_9_0" index="0" speed="13.89" length="9.81" shape="833.00,1121.71 842.80,1122.16"/>
    </edge>
    <edge id=":1466350486_10" function="internal">
        <lane id=":1466350486_10_0" index="0" speed="18.06" length="11.14" shape="833.00,1121.71 836.07,1122.25 838.08,1123.65 839.01,1125.91 838.88,1129.03"/>
    </edge>
    <edge id=":1466350486_11" function="internal">
        <lane id=":1466350486_11_0" index="0" speed="13.89" length="4.82" shape="833.00,1121.71 834.21,1122.57 834.59,1123.41 834.16,1124.22 832.89,1125.00"/>
    </edge>
    <edge id=":1466350486_12" function="internal">
        <lane id=":1466350486_12_0" index="0" speed="18.06" length="5.20" shape="835.63,1128.42 835.70,1126.97 835.26,1125.91 834.33,1125.26 832.89,1125.00"/>
    </edge>
    <edge id=":1466350486_13" function="internal">
        <lane id=":1466350486_13_0" index="0" speed="22.22" length="9.83" shape="835.63,1128.42 836.45,1118.62"/>
    </edge>
    <edge id=":1466350486_14" function="internal">
        <lane id=":1466350486_14_0" index="0" speed="18.06" length="7.47" shape="835.63,1128.42 836.55,1125.54 838.05,1123.54 839.76,1122.61"/>
    </edge>
    <edge id=":1466350486_15" function="internal">
        <lane id=":1466350486_15_0" index="0" speed="22.22" length="2.41" shape="835.63,1128.42 836.67,1127.36 837.56,1127.11"/>
    </edge>
    <edge id=":1466350486_18" function="internal">
        <lane id=":1466350486_18_0" index="0" speed="18.06" length="3.10" shape="839.76,1122.61 840.14,1122.41 842.80,1122.16"/>
    </edge>
    <edge id=":1466350486_19" function="internal">
        <lane id=":1466350486_19_0" index="0" speed="22.22" length="2.41" shape="837.56,1127.11 838.30,1127.66 838.88,1129.03"/>
    </edge>
    <edge id=":1466350487_0" function="internal">
        <lane id=":1466350487_0_0" index="0" speed="18.06" length="5.03" shape="672.70,1119.54 671.32,1119.69 670.33,1120.24 669.73,1121.20 669.51,1122.56"/>
    </edge>
    <edge id=":1466350487_1" function="internal">
        <lane id=":1466350487_1_0" index="0" speed="13.89" length="9.85" shape="672.70,1119.54 662.88,1118.83"/>
    </edge>
    <edge id=":1466350487_2" function="internal">
        <lane id=":1466350487_2_0" index="0" speed="18.06" length="10.51" shape="672.70,1119.54 669.88,1119.03 667.91,1117.72 666.82,1115.61 666.58,1112.72"/>
    </edge>
    <edge id=":1466350487_3" function="internal">
        <lane id=":1466350487_3_0" index="0" speed="13.89" length="4.82" shape="672.70,1119.54 671.49,1118.67 671.11,1117.83 671.55,1117.02 672.82,1116.24"/>
    </edge>
    <edge id=":1466350487_4" function="internal">
        <lane id=":1466350487_4_0" index="0" speed="18.06" length="5.10" shape="669.87,1112.91 669.99,1114.33 670.51,1115.35 671.46,1115.99 672.82,1116.24"/>
    </edge>
    <edge id=":1466350487_5" function="internal">
        <lane id=":1466350487_5_0" index="0" speed="22.22" length="9.66" shape="669.87,1112.91 669.51,1122.56"/>
    </edge>
    <edge id=":1466350487_6" function="internal">
        <lane id=":1466350487_6_0" index="0" speed="18.06" length="7.02" shape="669.87,1112.91 669.29,1115.77 667.93,1117.71 666.36,1118.46"/>
    </edge>
    <edge id=":1466350487_7" function="internal">
        <lane id=":1466350487_7_0" index="0" speed="22.22" length="2.41" shape="669.87,1112.91 668.98,1114.10 668.13,1114.46"/>
    </edge>
    <edge id=":1466350487_16" function="internal">
        <lane id=":1466350487_16_0" index="0" speed="18.06" length="3.55" shape="666.36,1118.46 665.79,1118.73 662.88,1118.83"/>
    </edge>
    <edge id=":1466350487_17" function="internal">
        <lane id=":1466350487_17_0" index="0" speed="22.22" length="2.41" shape="668.13,1114.46 667.33,1114.00 666.58,1112.72"/>
    </edge>
    <edge id=":1466350487_8" function="internal">
        <lane id=":1466350487_8_0" index="0" speed="18.06" length="5.06" shape="663.23,1115.55 664.63,1115.50 665.65,1115.01 666.30,1114.09 666.58,1112.72"/>
    </edge>
    <edge id=":1466350487_9" function="internal">
        <lane id=":1466350487_9_0" index="0" speed="13.89" length="9.61" shape="663.23,1115.55 672.82,1116.24"/>
    </edge>
    <edge id=":1466350487_10" function="internal">
        <lane id=":1466350487_10_0" index="0" speed="18.06" length="10.53" shape="663.23,1115.55 666.02,1116.25 667.99,1117.65 669.16,1119.75 669.51,1122.56"/>
    </edge>
    <edge id=":1466350487_11" function="internal">
        <lane id=":1466350487_11_0" index="0" speed="13.89" length="4.82" shape="663.23,1115.55 664.37,1116.50 664.69,1117.37 664.20,1118.14 662.88,1118.83"/>
    </edge>
    <edge id=":1466350487_12" function="internal">
        <lane id=":1466350487_12_0" index="0" speed="18.06" length="5.55" shape="666.21,1122.51 666.02,1121.04 665.40,1119.93 664.36,1119.20 662.88,1118.83"/>
    </edge>
    <edge id=":1466350487_13" function="internal">
        <lane id=":1466350487_13_0" index="0" speed="22.22" length="9.80" shape="666.21,1122.51 666.58,1112.72"/>
    </edge>
    <edge id=":1466350487_14" function="internal">
        <lane id=":1466350487_14_0" index="0" speed="18.06" length="7.29" shape="666.21,1122.51 666.66,1119.68 667.91,1117.69 669.73,1116.68"/>
    </edge>
    <edge id=":1466350487_15" function="internal">
        <lane id=":1466350487_15_0" index="0" speed="22.22" length="2.41" shape="666.21,1122.51 667.06,1121.28 667.89,1120.89"/>
    </edge>
    <edge id=":1466350487_18" function="internal">
        <lane id=":1466350487_18_0" index="0" speed="18.06" length="3.14" shape="669.73,1116.68 669.97,1116.55 672.82,1116.24"/>
    </edge>
    <edge id=":1466350487_19" function="internal">
        <lane id=":1466350487_19_0" index="0" speed="22.22" length="2.41" shape="667.89,1120.89 668.71,1121.31 669.51,1122.56"/>
    </edge>
    <edge id=":1466350488_0" function="internal">
        <lane id=":1466350488_0_0" index="0" speed="27.78" length="9.41" shape="931.73,1124.34 931.45,1133.74"/>
        <lane id=":1466350488_0_1" index="1" speed="27.78" length="9.41" shape="928.44,1124.23 928.16,1133.66"/>
    </edge>
    <edge id=":1466350488_2" function="internal">
        <lane id=":1466350488_2_0" index="0" speed="20.83" length="6.56" shape="928.44,1124.23 927.72,1127.10 925.81,1129.05 924.98,1129.33"/>
    </edge>
    <edge id=":1466350488_3" function="internal">
        <lane id=":1466350488_3_0" index="0" speed="27.78" length="2.41" shape="928.44,1124.23 927.57,1125.44 926.73,1125.83"/>
    </edge>
    <edge id=":1466350488_11" function="internal">
        <lane id=":1466350488_11_0" index="0" speed="20.83" length="6.73" shape="924.98,1129.33 922.70,1130.10 918.38,1130.25"/>
    </edge>
    <edge id=":1466350488_12" function="internal">
        <lane id=":1466350488_12_0" index="0" speed="27.78" length="2.41" shape="926.73,1125.83 925.92,1125.38 925.14,1124.12"/>
    </edge>
    <edge id=":1466350488_4" function="internal">
        <lane id=":1466350488_4_0" index="0" speed="20.83" length="5.03" shape="918.59,1126.95 919.97,1126.84 920.97,1126.32 921.60,1125.37 921.84,1124.01"/>
    </edge>
    <edge id=":1466350488_5" function="internal">
        <lane id=":1466350488_5_0" index="0" speed="20.83" length="13.02" shape="918.59,1126.95 922.83,1127.60 925.84,1128.94 927.62,1130.96 928.16,1133.66"/>
    </edge>
    <edge id=":1466350488_6" function="internal">
        <lane id=":1466350488_6_0" index="0" speed="13.89" length="4.82" shape="918.59,1126.95 919.78,1127.86 920.13,1128.70 919.67,1129.50 918.38,1130.25"/>
    </edge>
    <edge id=":1466350488_7" function="internal">
        <lane id=":1466350488_7_0" index="0" speed="20.83" length="5.13" shape="921.56,1133.49 921.39,1132.15 920.80,1131.16 919.80,1130.53 918.38,1130.25"/>
    </edge>
    <edge id=":1466350488_8" function="internal">
        <lane id=":1466350488_8_0" index="0" speed="27.78" length="9.47" shape="921.56,1133.49 921.84,1124.01"/>
        <lane id=":1466350488_8_1" index="1" speed="27.78" length="9.47" shape="924.86,1133.57 925.14,1124.12"/>
    </edge>
    <edge id=":1466350488_10" function="internal">
        <lane id=":1466350488_10_0" index="0" speed="27.78" length="2.41" shape="924.86,1133.57 925.71,1132.36 926.55,1131.97"/>
    </edge>
    <edge id=":1466350488_13" function="internal">
        <lane id=":1466350488_13_0" index="0" speed="27.78" length="2.41" shape="926.55,1131.97 927.36,1132.40 928.16,1133.66"/>
    </edge>
    <edge id=":1466369200_0" function="internal">
        <lane id=":1466369200_0_0" index="0" speed="18.06" length="5.43" shape="747.98,1079.01 747.72,1077.47 747.09,1076.36 746.09,1075.69 744.72,1075.46"/>
    </edge>
    <edge id=":1466369200_1" function="internal">
        <lane id=":1466369200_1_0" index="0" speed="22.22" length="9.89" shape="747.98,1079.01 747.91,1069.12"/>
    </edge>
    <edge id=":1466369200_2" function="internal">
        <lane id=":1466369200_2_0" index="0" speed="18.06" length="7.42" shape="747.98,1079.01 748.28,1076.01 749.49,1073.92 751.23,1072.96"/>
    </edge>
    <edge id=":1466369200_3" function="internal">
        <lane id=":1466369200_3_0" index="0" speed="22.22" length="2.41" shape="747.98,1079.01 748.75,1077.74 749.56,1077.29"/>
    </edge>
    <edge id=":1466369200_16" function="internal">
        <lane id=":1466369200_16_0" index="0" speed="18.06" length="3.43" shape="751.23,1072.96 751.59,1072.76 754.60,1072.50"/>
    </edge>
    <edge id=":1466369200_17" function="internal">
        <lane id=":1466369200_17_0" index="0" speed="22.22" length="2.41" shape="749.56,1077.29 750.40,1077.67 751.27,1078.87"/>
    </edge>
    <edge id=":1466369200_4" function="internal">
        <lane id=":1466369200_4_0" index="0" speed="18.06" length="5.13" shape="754.40,1075.80 752.98,1075.92 751.99,1076.47 751.42,1077.45 751.27,1078.87"/>
    </edge>
    <edge id=":1466369200_5" function="internal">
        <lane id=":1466369200_5_0" index="0" speed="13.89" length="9.69" shape="754.40,1075.80 744.72,1075.46"/>
    </edge>
    <edge id=":1466369200_6" function="internal">
        <lane id=":1466369200_6_0" index="0" speed="18.06" length="10.55" shape="754.40,1075.80 751.49,1075.23 749.43,1073.93 748.24,1071.89 747.91,1069.12"/>
    </edge>
    <edge id=":1466369200_7" function="internal">
        <lane id=":1466369200_7_0" index="0" speed="13.89" length="4.82" shape="754.40,1075.80 753.22,1074.90 752.85,1074.05 753.31,1073.25 754.60,1072.50"/>
    </edge>
    <edge id=":1466369200_8" function="internal">
        <lane id=":1466369200_8_0" index="0" speed="18.06" length="5.34" shape="751.20,1069.23 751.38,1070.58 752.00,1071.58 753.08,1072.22 754.60,1072.50"/>
    </edge>
    <edge id=":1466369200_9" function="internal">
        <lane id=":1466369200_9_0" index="0" speed="22.22" length="9.65" shape="751.20,1069.23 751.27,1078.87"/>
    </edge>
    <edge id=":1466369200_10" function="internal">
        <lane id=":1466369200_10_0" index="0" speed="18.06" length="6.88" shape="751.20,1069.23 750.73,1071.97 749.49,1073.93 747.95,1074.82"/>
    </edge>
    <edge id=":1466369200_11" function="internal">
        <lane id=":1466369200_11_0" index="0" speed="22.22" length="2.41" shape="751.20,1069.23 750.34,1070.44 749.50,1070.82"/>
    </edge>
    <edge id=":1466369200_18" function="internal">
        <lane id=":1466369200_18_0" index="0" speed="18.06" length="3.32" shape="747.95,1074.82 747.48,1075.09 744.72,1075.46"/>
    </edge>
    <edge id=":1466369200_19" function="internal">
        <lane id=":1466369200_19_0" index="0" speed="22.22" length="2.41" shape="749.50,1070.82 748.69,1070.39 747.91,1069.12"/>
    </edge>
    <edge id=":1466369200_12" function="internal">
        <lane id=":1466369200_12_0" index="0" speed="18.06" length="4.97" shape="744.75,1072.16 746.09,1071.98 747.07,1071.41 747.67,1070.46 747.91,1069.12"/>
    </edge>
    <edge id=":1466369200_13" function="internal">
        <lane id=":1466369200_13_0" index="0" speed="13.89" length="9.86" shape="744.75,1072.16 754.60,1072.50"/>
    </edge>
    <edge id=":1466369200_14" function="internal">
        <lane id=":1466369200_14_0" index="0" speed="18.06" length="10.56" shape="744.75,1072.16 747.50,1072.60 749.50,1073.86 750.76,1075.95 751.27,1078.87"/>
    </edge>
    <edge id=":1466369200_15" function="internal">
        <lane id=":1466369200_15_0" index="0" speed="13.89" length="4.82" shape="744.75,1072.16 745.98,1073.00 746.38,1073.82 745.97,1074.65 744.72,1075.46"/>
    </edge>
    <edge id=":1466369202_0" function="internal">
        <lane id=":1466369202_0_0" index="0" speed="13.89" length="5.57" shape="1032.88,1089.60 1031.34,1089.82 1030.21,1090.44 1029.49,1091.46 1029.17,1092.89"/>
    </edge>
    <edge id=":1466369202_1" function="internal">
        <lane id=":1466369202_1_0" index="0" speed="13.89" length="9.93" shape="1032.88,1089.60 1022.96,1089.42"/>
    </edge>
    <edge id=":1466369202_2" function="internal">
        <lane id=":1466369202_2_0" index="0" speed="13.89" length="10.75" shape="1032.88,1089.60 1029.93,1089.20 1027.89,1087.94 1026.77,1085.82 1026.57,1082.85"/>
    </edge>
    <edge id=":1466369202_3" function="internal">
        <lane id=":1466369202_3_0" index="0" speed="13.89" length="4.82" shape="1032.88,1089.60 1031.64,1088.78 1031.22,1087.96 1031.63,1087.13 1032.86,1086.30"/>
    </edge>
    <edge id=":1466369202_4" function="internal">
        <lane id=":1466369202_4_0" index="0" speed="13.89" length="5.10" shape="1029.86,1083.09 1029.96,1084.51 1030.49,1085.51 1031.45,1086.11 1032.86,1086.30"/>
    </edge>
    <edge id=":1466369202_5" function="internal">
        <lane id=":1466369202_5_0" index="0" speed="13.89" length="9.82" shape="1029.86,1083.09 1029.17,1092.89"/>
    </edge>
    <edge id=":1466369202_6" function="internal">
        <lane id=":1466369202_6_0" index="0" speed="13.89" length="7.36" shape="1029.86,1083.09 1029.24,1085.97 1027.88,1087.98 1026.14,1088.94"/>
    </edge>
    <edge id=":1466369202_7" function="internal">
        <lane id=":1466369202_7_0" index="0" speed="13.89" length="2.41" shape="1029.86,1083.09 1028.95,1084.27 1028.09,1084.61"/>
    </edge>
    <edge id=":1466369202_16" function="internal">
        <lane id=":1466369202_16_0" index="0" speed="13.89" length="3.25" shape="1026.14,1088.94 1025.79,1089.13 1022.96,1089.42"/>
    </edge>
    <edge id=":1466369202_17" function="internal">
        <lane id=":1466369202_17_0" index="0" speed="13.89" length="2.41" shape="1028.09,1084.61 1027.30,1084.14 1026.57,1082.85"/>
    </edge>
    <edge id=":1466369202_8" function="internal">
        <lane id=":1466369202_8_0" index="0" speed="13.89" length="5.40" shape="1023.11,1086.12 1024.53,1085.97 1025.58,1085.38 1026.26,1084.33 1026.57,1082.85"/>
    </edge>
    <edge id=":1466369202_9" function="internal">
        <lane id=":1466369202_9_0" index="0" speed="13.89" length="9.75" shape="1023.11,1086.12 1032.86,1086.30"/>
    </edge>
    <edge id=":1466369202_10" function="internal">
        <lane id=":1466369202_10_0" index="0" speed="13.89" length="10.41" shape="1023.11,1086.12 1025.92,1086.66 1027.87,1087.96 1028.95,1090.04 1029.17,1092.89"/>
    </edge>
    <edge id=":1466369202_11" function="internal">
        <lane id=":1466369202_11_0" index="0" speed="13.89" length="4.82" shape="1023.11,1086.12 1024.31,1087.00 1024.68,1087.84 1024.23,1088.65 1022.96,1089.42"/>
    </edge>
    <edge id=":1466369202_12" function="internal">
        <lane id=":1466369202_12_0" index="0" speed="13.89" length="5.02" shape="1025.88,1092.68 1025.77,1091.31 1025.25,1090.31 1024.31,1089.68 1022.96,1089.42"/>
    </edge>
    <edge id=":1466369202_13" function="internal">
        <lane id=":1466369202_13_0" index="0" speed="13.89" length="9.86" shape="1025.88,1092.68 1026.57,1082.85"/>
    </edge>
    <edge id=":1466369202_14" function="internal">
        <lane id=":1466369202_14_0" index="0" speed="13.89" length="7.27" shape="1025.88,1092.68 1026.47,1089.91 1027.83,1087.92 1029.59,1086.92"/>
    </edge>
    <edge id=":1466369202_15" function="internal">
        <lane id=":1466369202_15_0" index="0" speed="13.89" length="2.41" shape="1025.88,1092.68 1026.78,1091.50 1027.63,1091.14"/>
    </edge>
    <edge id=":1466369202_18" function="internal">
        <lane id=":1466369202_18_0" index="0" speed="13.89" length="3.35" shape="1029.59,1086.92 1029.96,1086.72 1032.86,1086.30"/>
    </edge>
    <edge id=":1466369202_19" function="internal">
        <lane id=":1466369202_19_0" index="0" speed="13.89" length="2.41" shape="1027.63,1091.14 1028.43,1091.61 1029.17,1092.89"/>
    </edge>
    <edge id=":1466369206_0" function="internal">
        <lane id=":1466369206_0_0" index="0" speed="18.06" length="5.01" shape="979.37,1087.42 978.00,1087.55 977.00,1088.09 976.38,1089.03 976.14,1090.39"/>
    </edge>
    <edge id=":1466369206_1" function="internal">
        <lane id=":1466369206_1_0" index="0" speed="13.89" length="9.52" shape="979.37,1087.42 969.85,1087.04"/>
    </edge>
    <edge id=":1466369206_2" function="internal">
        <lane id=":1466369206_2_0" index="0" speed="18.06" length="10.35" shape="979.37,1087.42 976.57,1086.89 974.62,1085.60 973.51,1083.54 973.24,1080.73"/>
    </edge>
    <edge id=":1466369206_3" function="internal">
        <lane id=":1466369206_3_0" index="0" speed="13.89" length="4.82" shape="979.37,1087.42 978.17,1086.54 977.79,1085.69 978.24,1084.89 979.52,1084.12"/>
    </edge>
    <edge id=":1466369206_4" function="internal">
        <lane id=":1466369206_4_0" index="0" speed="18.06" length="5.02" shape="976.54,1080.88 976.67,1082.25 977.21,1083.24 978.16,1083.87 979.52,1084.12"/>
    </edge>
    <edge id=":1466369206_5" function="internal">
        <lane id=":1466369206_5_0" index="0" speed="22.22" length="9.51" shape="976.54,1080.88 976.14,1090.39"/>
    </edge>
    <edge id=":1466369206_6" function="internal">
        <lane id=":1466369206_6_0" index="0" speed="18.06" length="7.13" shape="976.54,1080.88 976.01,1083.66 974.72,1085.61 973.00,1086.55"/>
    </edge>
    <edge id=":1466369206_7" function="internal">
        <lane id=":1466369206_7_0" index="0" speed="22.22" length="2.41" shape="976.54,1080.88 975.66,1082.08 974.81,1082.45"/>
    </edge>
    <edge id=":1466369206_16" function="internal">
        <lane id=":1466369206_16_0" index="0" speed="18.06" length="3.21" shape="973.00,1086.55 972.67,1086.74 969.85,1087.04"/>
    </edge>
    <edge id=":1466369206_17" function="internal">
        <lane id=":1466369206_17_0" index="0" speed="22.22" length="2.41" shape="974.81,1082.45 974.01,1082.00 973.24,1080.73"/>
    </edge>
    <edge id=":1466369206_8" function="internal">
        <lane id=":1466369206_8_0" index="0" speed="18.06" length="5.06" shape="969.96,1083.74 971.34,1083.59 972.35,1083.04 972.98,1082.09 973.24,1080.73"/>
    </edge>
    <edge id=":1466369206_9" function="internal">
        <lane id=":1466369206_9_0" index="0" speed="13.89" length="9.56" shape="969.96,1083.74 979.52,1084.12"/>
    </edge>
    <edge id=":1466369206_10" function="internal">
        <lane id=":1466369206_10_0" index="0" speed="18.06" length="10.35" shape="969.96,1083.74 972.76,1084.24 974.72,1085.51 975.84,1087.56 976.14,1090.39"/>
    </edge>
    <edge id=":1466369206_11" function="internal">
        <lane id=":1466369206_11_0" index="0" speed="13.89" length="4.82" shape="969.96,1083.74 971.17,1084.61 971.56,1085.45 971.12,1086.26 969.85,1087.04"/>
    </edge>
    <edge id=":1466369206_12" function="internal">
        <lane id=":1466369206_12_0" index="0" speed="18.06" length="5.02" shape="972.84,1090.26 972.70,1088.89 972.15,1087.90 971.20,1087.28 969.85,1087.04"/>
    </edge>
    <edge id=":1466369206_13" function="internal">
        <lane id=":1466369206_13_0" index="0" speed="22.22" length="9.54" shape="972.84,1090.26 973.24,1080.73"/>
    </edge>
    <edge id=":1466369206_14" function="internal">
        <lane id=":1466369206_14_0" index="0" speed="18.06" length="7.18" shape="972.84,1090.26 973.35,1087.47 974.63,1085.51 976.38,1084.56"/>
    </edge>
    <edge id=":1466369206_15" function="internal">
        <lane id=":1466369206_15_0" index="0" speed="22.22" length="2.41" shape="972.84,1090.26 973.71,1089.06 974.55,1088.68"/>
    </edge>
    <edge id=":1466369206_18" function="internal">
        <lane id=":1466369206_18_0" index="0" speed="18.06" length="3.19" shape="976.38,1084.56 976.69,1084.39 979.52,1084.12"/>
    </edge>
    <edge id=":1466369206_19" function="internal">
        <lane id=":1466369206_19_0" index="0" speed="22.22" length="2.41" shape="974.55,1088.68 975.36,1089.12 976.14,1090.39"/>
    </edge>
    <edge id=":1466369213_0" function="internal">
        <lane id=":1466369213_0_0" index="0" speed="18.06" length="5.57" shape="675.58,1074.93 674.05,1075.13 672.93,1075.75 672.22,1076.78 671.91,1078.24"/>
    </edge>
    <edge id=":1466369213_1" function="internal">
        <lane id=":1466369213_1_0" index="0" speed="13.89" length="9.95" shape="675.58,1074.93 665.63,1074.84"/>
    </edge>
    <edge id=":1466369213_2" function="internal">
        <lane id=":1466369213_2_0" index="0" speed="18.06" length="10.76" shape="675.58,1074.93 672.63,1074.48 670.61,1073.19 669.53,1071.06 669.37,1068.08"/>
    </edge>
    <edge id=":1466369213_3" function="internal">
        <lane id=":1466369213_3_0" index="0" speed="13.89" length="4.82" shape="675.58,1074.93 674.35,1074.10 673.94,1073.27 674.36,1072.45 675.60,1071.63"/>
    </edge>
    <edge id=":1466369213_4" function="internal">
        <lane id=":1466369213_4_0" index="0" speed="18.06" length="5.10" shape="672.66,1068.38 672.73,1069.79 673.25,1070.81 674.20,1071.42 675.60,1071.63"/>
    </edge>
    <edge id=":1466369213_5" function="internal">
        <lane id=":1466369213_5_0" index="0" speed="22.22" length="9.89" shape="672.66,1068.38 671.91,1078.24"/>
    </edge>
    <edge id=":1466369213_6" function="internal">
        <lane id=":1466369213_6_0" index="0" speed="18.06" length="7.33" shape="672.66,1068.38 672.00,1071.23 670.60,1073.26 668.91,1074.22"/>
    </edge>
    <edge id=":1466369213_7" function="internal">
        <lane id=":1466369213_7_0" index="0" speed="22.22" length="2.41" shape="672.66,1068.38 671.72,1069.54 670.87,1069.87"/>
    </edge>
    <edge id=":1466369213_16" function="internal">
        <lane id=":1466369213_16_0" index="0" speed="18.06" length="3.37" shape="668.91,1074.22 668.48,1074.46 665.63,1074.84"/>
    </edge>
    <edge id=":1466369213_17" function="internal">
        <lane id=":1466369213_17_0" index="0" speed="22.22" length="2.41" shape="670.87,1069.87 670.08,1069.39 669.37,1068.08"/>
    </edge>
    <edge id=":1466369213_8" function="internal">
        <lane id=":1466369213_8_0" index="0" speed="18.06" length="5.69" shape="665.67,1071.54 667.17,1071.34 668.29,1070.69 669.02,1069.61 669.37,1068.08"/>
    </edge>
    <edge id=":1466369213_9" function="internal">
        <lane id=":1466369213_9_0" index="0" speed="13.89" length="9.94" shape="665.67,1071.54 675.60,1071.63"/>
    </edge>
    <edge id=":1466369213_10" function="internal">
        <lane id=":1466369213_10_0" index="0" speed="18.06" length="10.57" shape="665.67,1071.54 668.55,1071.99 670.55,1073.25 671.67,1075.34 671.91,1078.24"/>
    </edge>
    <edge id=":1466369213_11" function="internal">
        <lane id=":1466369213_11_0" index="0" speed="13.89" length="4.82" shape="665.67,1071.54 666.89,1072.38 667.30,1073.21 666.88,1074.03 665.63,1074.84"/>
    </edge>
    <edge id=":1466369213_12" function="internal">
        <lane id=":1466369213_12_0" index="0" speed="18.06" length="5.06" shape="668.62,1078.05 668.50,1076.66 667.97,1075.66 667.01,1075.05 665.63,1074.84"/>
    </edge>
    <edge id=":1466369213_13" function="internal">
        <lane id=":1466369213_13_0" index="0" speed="22.22" length="10.00" shape="668.62,1078.05 669.37,1068.08"/>
    </edge>
    <edge id=":1466369213_14" function="internal">
        <lane id=":1466369213_14_0" index="0" speed="18.06" length="7.39" shape="668.62,1078.05 669.20,1075.22 670.56,1073.21 672.37,1072.19"/>
    </edge>
    <edge id=":1466369213_15" function="internal">
        <lane id=":1466369213_15_0" index="0" speed="22.22" length="2.41" shape="668.62,1078.05 669.52,1076.86 670.36,1076.50"/>
    </edge>
    <edge id=":1466369213_18" function="internal">
        <lane id=":1466369213_18_0" index="0" speed="18.06" length="3.30" shape="672.37,1072.19 672.69,1072.01 675.60,1071.63"/>
    </edge>
    <edge id=":1466369213_19" function="internal">
        <lane id=":1466369213_19_0" index="0" speed="22.22" length="2.41" shape="670.36,1076.50 671.16,1076.96 671.91,1078.24"/>
    </edge>
    <edge id=":1466400285_0" function="internal">
        <lane id=":1466400285_0_0" index="0" speed="18.06" length="5.03" shape="755.49,1032.29 754.11,1032.41 753.11,1032.95 752.50,1033.90 752.26,1035.26"/>
    </edge>
    <edge id=":1466400285_1" function="internal">
        <lane id=":1466400285_1_0" index="0" speed="13.89" length="9.54" shape="755.49,1032.29 745.95,1031.84"/>
    </edge>
    <edge id=":1466400285_2" function="internal">
        <lane id=":1466400285_2_0" index="0" speed="18.06" length="10.37" shape="755.49,1032.29 752.68,1031.74 750.72,1030.44 749.60,1028.39 749.33,1025.58"/>
    </edge>
    <edge id=":1466400285_3" function="internal">
        <lane id=":1466400285_3_0" index="0" speed="13.89" length="4.82" shape="755.49,1032.29 754.29,1031.40 753.92,1030.56 754.38,1029.75 755.66,1028.99"/>
    </edge>
    <edge id=":1466400285_4" function="internal">
        <lane id=":1466400285_4_0" index="0" speed="18.06" length="5.07" shape="752.62,1025.73 752.76,1027.10 753.31,1028.10 754.28,1028.73 755.66,1028.99"/>
    </edge>
    <edge id=":1466400285_5" function="internal">
        <lane id=":1466400285_5_0" index="0" speed="22.22" length="9.53" shape="752.62,1025.73 752.26,1035.26"/>
    </edge>
    <edge id=":1466400285_6" function="internal">
        <lane id=":1466400285_6_0" index="0" speed="18.06" length="7.09" shape="752.62,1025.73 752.10,1028.50 750.81,1030.45 749.10,1031.37"/>
    </edge>
    <edge id=":1466400285_7" function="internal">