<routes>
        <vType id="vtype0" accel="0.8" decel="4.5" sigma="0.5" length="2" minGap="1" maxSpeed="16.67" guiShape="passenger" reroute="false"/>
        <vType id="vtype1" accel="0.8" decel="4.5" sigma="0.5" length="2" minGap="1" maxSpeed="16.67" guiShape="passenger"/>
        <route id="r1to2" edges="1to2 " />
        <route id="r1to3" edges="1to3 " />
        <route id="r1to4" edges="1to4 " />
        <route id="r1to5" edges="1to4 4to5 " />
        <route id="r1to6" edges="1to4 4to6 " />
        <route id="r1to7" edges="1to4 4to7 " />
        <route id="r1to8" edges="1to4 4to7 7to8 " />
        <route id="r1to9" edges="1to4 4to7 7to9 " />
        <route id="r1to10" edges="1to4 4to7 7to10 " />
        <route id="r2to3" edges="2to3 " />
        <route id="r2to4" edges="2to4 " />
        <route id="r2to5" edges="2to5 " />
        <route id="r2to6" edges="2to5 5to6 " />
        <route id="r2to7" edges="2to5 5to7 " />
        <route id="r2to8" edges="2to5 5to8 " />
        <route id="r2to9" edges="2to5 5to8 8to9 " />
        <route id="r2to10" edges="2to5 5to8 8to10 " />
        <route id="r3to4" edges="3to4 " />
        <route id="r3to5" edges="3to5 " />
        <route id="r3to6" edges="3to6 " />
        <route id="r3to7" edges="3to6 6to7 " />
        <route id="r3to8" edges="3to6 6to8 " />
        <route id="r3to9" edges="3to6 6to9 " />
        <route id="r3to10" edges="3to6 6to9 9to10 " />
        <route id="r4to5" edges="4to5 " />
        <route id="r4to6" edges="4to6 " />
        <route id="r4to7" edges="4to7 " />
        <route id="r4to8" edges="4to7 7to8 " />
        <route id="r4to9" edges="4to7 7to9 " />
        <route id="r4to10" edges="4to7 7to10 " />
        <route id="r5to6" edges="5to6 " />
        <route id="r5to7" edges="5to7 " />
        <route id="r5to8" edges="5to8 " />
        <route id="r5to9" edges="5to8 8to9 " />
        <route id="r5to10" edges="5to8 8to10 " />
        <route id="r6to7" edges="6to7 " />
        <route id="r6to8" edges="6to8 " />
        <route id="r6to9" edges="6to9 " />
        <route id="r6to10" edges="6to9 9to10 " />
        <route id="r7to8" edges="7to8 " />
        <route id="r7to9" edges="7to9 " />
        <route id="r7to10" edges="7to10 " />
        <route id="r8to9" edges="8to9 " />
        <route id="r8to10" edges="8to10 " />
        <route id="r9to10" edges="9to10 " />
    <vehicle id="vid#0#2#8" type="vtype1" route="r2to8" depart="0" />
    <vehicle id="vid#1#1#8" type="vtype1" route="r1to8" depart="0" />
    <vehicle id="vid#2#3#10" type="vtype1" route="r3to10" depart="0" />
    <vehicle id="vid#3#3#8" type="vtype1" route="r3to8" depart="0" />
    <vehicle id="vid#4#2#8" type="vtype1" route="r2to8" depart="0" />
    <vehicle id="vid#5#1#9" type="vtype1" route="r1to9" depart="0" />
    <vehicle id="vid#6#1#8" type="vtype1" route="r1to8" depart="0" />
    <vehicle id="vid#7#2#9" type="vtype1" route="r2to9" depart="0" />
    <vehicle id="vid#8#1#9" type="vtype1" route="r1to9" depart="0" />
    <vehicle id="vid#9#3#8" type="vtype1" route="r3to8" depart="0" />
    <vehicle id="vid#10#3#10" type="vtype1" route="r3to10" depart="0" />
    <vehicle id="vid#11#2#8" type="vtype1" route="r2to8" depart="0" />
    <vehicle id="vid#12#3#9" type="vtype1" route="r3to9" depart="0" />
    <vehicle id="vid#13#1#8" type="vtype1" route="r1to8" depart="0" />
    <vehicle id="vid#14#3#9" type="vtype1" route="r3to9" depart="0" />
    <vehicle id="vid#15#3#10" type="vtype1" route="r3to10" depart="0" />
    <vehicle id="vid#16#2#10" type="vtype1" route="r2to10" depart="0" />
    <vehicle id="vid#17#2#9" type="vtype1" route="r2to9" depart="0" />
    <vehicle id="vid#18#3#9" type="vtype1" route="r3to9" depart="0" />
    <vehicle id="vid#19#3#9" type="vtype1" route="r3to9" depart="0" />
    <vehicle id="vid#20#3#8" type="vtype1" route="r3to8" depart="0" />
    <vehicle id="vid#21#1#8" type="vtype1" route="r1to8" depart="0" />
    <vehicle id="vid#22#1#8" type="vtype1" route="r1to8" depart="0" />
    <vehicle id="vid#23#1#8" type="vtype1" route="r1to8" depart="0" />
    <vehicle id="vid#24#2#9" type="vtype1" route="r2to9" depart="0" />
    <vehicle id="vid#25#2#8" type="vtype1" route="r2to8" depart="0" />
    <vehicle id="vid#26#1#10" type="vtype1" route="r1to10" depart="0" />
    <vehicle id="vid#27#2#9" type="vtype1" route="r2to9" depart="0" />
    <vehicle id="vid#28#1#10" type="vtype1" route="r1to10" depart="0" />
    <vehicle id="vid#29#1#9" type="vtype1" route="r1to9" depart="0" />
    <vehicle id="vid#30#3#9" type="vtype1" route="r3to9" depart="0" />
    <vehicle id="vid#31#2#10" type="vtype1" route="r2to10" depart="0" />
    <vehicle id="vid#32#3#10" type="vtype1" route="r3to10" depart="0" />
    <vehicle id="vid#33#1#8" type="vtype1" route="r1to8" depart="0" />
    <vehicle id="vid#34#1#8" type="vtype1" route="r1to8" depart="0" />
    <vehicle id="vid#35#1#10" type="vtype1" route="r1to10" depart="0" />
    <vehicle id="vid#36#3#8" type="vtype1" route="r3to8" depart="0" />
    <vehicle id="vid#37#2#9" type="vtype1" route="r2to9" depart="0" />
    <vehicle id="vid#38#3#9" type="vtype1" route="r3to9" depart="0" />
    <vehicle id="vid#39#1#8" type="vtype1" route="r1to8" depart="0" />
    <vehicle id="vid#40#2#8" type="vtype1" route="r2to8" depart="0" />
    <vehicle id="vid#41#2#10" type="vtype1" route="r2to10" depart="0" />
    <vehicle id="vid#42#2#8" type="vtype1" route="r2to8" depart="0" />
    <vehicle id="vid#43#3#9" type="vtype1" route="r3to9" depart="0" />
    <vehicle id="vid#44#1#8" type="vtype1" route="r1to8" depart="0" />
    <vehicle id="vid#45#1#9" type="vtype1" route="r1to9" depart="0" />
    <vehicle id="vid#46#3#9" type="vtype1" route="r3to9" depart="0" />
    <vehicle id="vid#47#1#9" type="vtype1" route="r1to9" depart="0" />
    <vehicle id="vid#48#3#9" type="vtype1" route="r3to9" depart="0" />
    <vehicle id="vid#49#3#10" type="vtype1" route="r3to10" depart="0" />
    <vehicle id="vid#50#1#10" type="vtype1" route="r1to10" depart="0" />
    <vehicle id="vid#51#3#9" type="vtype1" route="r3to9" depart="0" />
    <vehicle id="vid#52#1#9" type="vtype1" route="r1to9" depart="0" />
    <vehicle id="vid#53#1#9" type="vtype1" route="r1to9" depart="0" />
    <vehicle id="vid#54#2#10" type="vtype1" route="r2to10" depart="0" />
    <vehicle id="vid#55#3#8" type="vtype1" route="r3to8" depart="0" />
    <vehicle id="vid#56#2#8" type="vtype1" route="r2to8" depart="0" />
    <vehicle id="vid#57#3#10" type="vtype1" route="r3to10" depart="0" />
    <vehicle id="vid#58#1#9" type="vtype1" route="r1to9" depart="0" />
    <vehicle id="vid#59#2#8" type="vtype1" route="r2to8" depart="0" />
    <vehicle id="vid#60#3#9" type="vtype1" route="r3to9" depart="0" />
    <vehicle id="vid#61#3#9" type="vtype1" route="r3to9" depart="0" />
    <vehicle id="vid#62#1#8" type="vtype1" route="r1to8" depart="0" />
    <vehicle id="vid#63#1#10" type="vtype1" route="r1to10" depart="0" />
    <vehicle id="vid#64#3#10" type="vtype1" route="r3to10" depart="0" />
    <vehicle id="vid#65#1#8" type="vtype1" route="r1to8" depart="0" />
    <vehicle id="vid#66#3#10" type="vtype1" route="r3to10" depart="0" />
    <vehicle id="vid#67#1#9" type="vtype1" route="r1to9" depart="0" />
    <vehicle id="vid#68#1#10" type="vtype1" route="r1to10" depart="0" />
    <vehicle id="vid#69#3#8" type="vtype1" route="r3to8" depart="0" />
    <vehicle id="vid#70#2#9" type="vtype1" route="r2to9" depart="0" />
    <vehicle id="vid#71#1#10" type="vtype1" route="r1to10" depart="0" />
    <vehicle id="vid#72#2#8" type="vtype1" route="r2to8" depart="0" />
    <vehicle id="vid#73#2#10" type="vtype1" route="r2to10" depart="0" />
    <vehicle id="vid#74#1#8" type="vtype1" route="r1to8" depart="0" />
    <vehicle id="vid#75#3#9" type="vtype1" route="r3to9" depart="0" />
    <vehicle id="vid#76#2#9" type="vtype1" route="r2to9" depart="0" />
    <vehicle id="vid#77#1#8" type="vtype1" route="r1to8" depart="0" />
    <vehicle id="vid#78#2#9" type="vtype1" route="r2to9" depart="0" />
    <vehicle id="vid#79#1#8" type="vtype1" route="r1to8" depart="0" />
    <vehicle id="vid#80#1#9" type="vtype1" route="r1to9" depart="0" />
    <vehicle id="vid#81#1#10" type="vtype1" route="r1to10" depart="0" />
    <vehicle id="vid#82#3#8" type="vtype1" route="r3to8" depart="0" />
    <vehicle id="vid#83#1#10" type="vtype1" route="r1to10" depart="0" />
    <vehicle id="vid#84#1#8" type="vtype1" route="r1to8" depart="0" />
    <vehicle id="vid#85#3#9" type="vtype1" route="r3to9" depart="0" />
    <vehicle id="vid#86#2#10" type="vtype1" route="r2to10" depart="0" />
    <vehicle id="vid#87#3#8" type="vtype1" route="r3to8" depart="0" />
    <vehicle id="vid#88#1#9" type="vtype1" route="r1to9" depart="0" />
    <vehicle id="vid#89#2#9" type="vtype1" route="r2to9" depart="0" />
    <vehicle id="vid#90#3#10" type="vtype1" route="r3to10" depart="0" />
    <vehicle id="vid#91#3#8" type="vtype1" route="r3to8" depart="0" />
    <vehicle id="vid#92#2#9" type="vtype1" route="r2to9" depart="0" />
    <vehicle id="vid#93#3#8" type="vtype1" route="r3to8" depart="0" />
    <vehicle id="vid#94#1#9" type="vtype1" route="r1to9" depart="0" />
    <vehicle id="vid#95#2#8" type="vtype1" route="r2to8" depart="0" />
    <vehicle id="vid#96#1#10" type="vtype1" route="r1to10" depart="0" />
    <vehicle id="vid#97#2#10" type="vtype1" route="r2to10" depart="0" />
    <vehicle id="vid#98#2#8" type="vtype1" route="r2to8" depart="0" />
    <vehicle id="vid#99#3#10" type="vtype1" route="r3to10" depart="0" />
    <vehicle id="vid#100#3#10" type="vtype1" route="r3to10" depart="1" />
    <vehicle id="vid#101#3#8" type="vtype1" route="r3to8" depart="1" />
    <vehicle id="vid#102#2#8" type="vtype1" route="r2to8" depart="1" />
    <vehicle id="vid#103#2#8" type="vtype1" route="r2to8" depart="1" />
    <vehicle id="vid#104#2#10" type="vtype1" route="r2to10" depart="1" />
    <vehicle id="vid#105#1#10" type="vtype1" route="r1to10" depart="1" />
    <vehicle id="vid#106#2#9" type="vtype1" route="r2to9" depart="1" />
    <vehicle id="vid#107#3#10" type="vtype1" route="r3to10" depart="1" />
    <vehicle id="vid#108#2#10" type="vtype1" route="r2to10" depart="1" />
    <vehicle id="vid#109#1#8" type="vtype1" route="r1to8" depart="1" />
    <vehicle id="vid#110#3#9" type="vtype1" route="r3to9" depart="1" />
    <vehicle id="vid#111#2#10" type="vtype1" route="r2to10" depart="1" />
    <vehicle id="vid#112#1#9" type="vtype1" route="r1to9" depart="1" />
    <vehicle id="vid#113#2#10" type="vtype1" route="r2to10" depart="1" />
    <vehicle id="vid#114#1#10" type="vtype1" route="r1to10" depart="1" />
    <vehicle id="vid#115#1#8" type="vtype1" route="r1to8" depart="1" />
    <vehicle id="vid#116#2#10" type="vtype1" route="r2to10" depart="1" />
    <vehicle id="vid#117#1#8" type="vtype1" route="r1to8" depart="1" />
    <vehicle id="vid#118#3#8" type="vtype1" route="r3to8" depart="1" />
    <vehicle id="vid#119#2#9" type="vtype1" route="r2to9" depart="1" />
    <vehicle id="vid#120#2#9" type="vtype1" route="r2to9" depart="1" />
    <vehicle id="vid#121#2#10" type="vtype1" route="r2to10" depart="1" />
    <vehicle id="vid#122#1#10" type="vtype1" route="r1to10" depart="1" />
    <vehicle id="vid#123#1#9" type="vtype1" route="r1to9" depart="1" />
    <vehicle id="vid#124#3#8" type="vtype1" route="r3to8" depart="1" />
    <vehicle id="vid#125#1#10" type="vtype1" route="r1to10" depart="1" />
    <vehicle id="vid#126#1#9" type="vtype1" route="r1to9" depart="1" />
    <vehicle id="vid#127#3#10" type="vtype1" route="r3to10" depart="1" />
    <vehicle id="vid#128#1#8" type="vtype1" route="r1to8" depart="1" />
    <vehicle id="vid#129#1#10" type="vtype1" route="r1to10" depart="1" />
    <vehicle id="vid#130#3#10" type="vtype1" route="r3to10" depart="1" />
    <vehicle id="vid#131#2#8" type="vtype1" route="r2to8" depart="1" />
    <vehicle id="vid#132#3#10" type="vtype1" route="r3to10" depart="1" />
    <vehicle id="vid#133#2#10" type="vtype1" route="r2to10" depart="1" />
    <vehicle id="vid#134#2#8" type="vtype1" route="r2to8" depart="1" />
    <vehicle id="vid#135#3#8" type="vtype1" route="r3to8" depart="1" />
    <vehicle id="vid#136#2#10" type="vtype1" route="r2to10" depart="1" />
    <vehicle id="vid#137#1#8" type="vtype1" route="r1to8" depart="1" />
    <vehicle id="vid#138#1#9" type="vtype1" route="r1to9" depart="1" />
    <vehicle id="vid#139#1#9" type="vtype1" route="r1to9" depart="1" />
    <vehicle id="vid#140#3#8" type="vtype1" route="r3to8" depart="1" />
    <vehicle id="vid#141#2#8" type="vtype1" route="r2to8" depart="1" />
    <vehicle id="vid#142#2#10" type="vtype1" route="r2to10" depart="1" />
    <vehicle id="vid#143#3#8" type="vtype1" route="r3to8" depart="1" />
    <vehicle id="vid#144#2#8" type="vtype1" route="r2to8" depart="1" />
    <vehicle id="vid#145#1#10" type="vtype1" route="r1to10" depart="1" />
    <vehicle id="vid#146#2#8" type="vtype1" route="r2to8" depart="1" />
    <vehicle id="vid#147#3#9" type="vtype1" route="r3to9" depart="1" />
    <vehicle id="vid#148#2#8" type="vtype1" route="r2to8" depart="1" />
    <vehicle id="vid#149#1#10" type="vtype1" route="r1to10" depart="1" />
    <vehicle id="vid#150#3#9" type="vtype1" route="r3to9" depart="1" />
    <vehicle id="vid#151#3#9" type="vtype1" route="r3to9" depart="1" />
    <vehicle id="vid#152#1#8" type="vtype1" route="r1to8" depart="1" />
    <vehicle id="vid#153#1#10" type="vtype1" route="r1to10" depart="1" />
    <vehicle id="vid#154#3#10" type="vtype1" route="r3to10" depart="1" />
    <vehicle id="vid#155#3#8" type="vtype1" route="r3to8" depart="1" />
    <vehicle id="vid#156#1#8" type="vtype1" route="r1to8" depart="1" />
    <vehicle id="vid#157#3#10" type="vtype1" route="r3to10" depart="1" />
    <vehicle id="vid#158#2#9" type="vtype1" route="r2to9" depart="1" />
    <vehicle id="vid#159#1#10" type="vtype1" route="r1to10" depart="1" />
    <vehicle id="vid#160#3#10" type="vtype1" route="r3to10" depart="1" />
    <vehicle id="vid#161#3#10" type="vtype1" route="r3to10" depart="1" />
    <vehicle id="vid#162#1#10" type="vtype1" route="r1to10" depart="1" />
    <vehicle id="vid#163#1#10" type="vtype1" route="r1to10" depart="1" />
    <vehicle id="vid#164#3#10" type="vtype1" route="r3to10" depart="1" />
    <vehicle id="vid#165#3#8" type="vtype1" route="r3to8" depart="1" />
    <vehicle id="vid#166#3#8" type="vtype1" route="r3to8" depart="1" />
    <vehicle id="vid#167#3#10" type="vtype1" route="r3to10" depart="1" />
    <vehicle id="vid#168#1#10" type="vtype1" route="r1to10" depart="1" />
    <vehicle id="vid#169#2#8" type="vtype1" route="r2to8" depart="1" />
    <vehicle id="vid#170#3#8" type="vtype1" route="r3to8" depart="1" />
    <vehicle id="vid#171#1#8" type="vtype1" route="r1to8" depart="1" />
    <vehicle id="vid#172#1#10" type="vtype1" route="r1to10" depart="1" />
    <vehicle id="vid#173#3#8" type="vtype1" route="r3to8" depart="1" />
    <vehicle id="vid#174#2#9" type="vtype1" route="r2to9" depart="1" />
    <vehicle id="vid#175#3#9" type="vtype1" route="r3to9" depart="1" />
    <vehicle id="vid#176#3#8" type="vtype1" route="r3to8" depart="1" />
    <vehicle id="vid#177#3#8" type="vtype1" route="r3to8" depart="1" />
    <vehicle id="vid#178#3#8" type="vtype1" route="r3to8" depart="1" />
    <vehicle id="vid#179#1#9" type="vtype1" route="r1to9" depart="1" />
    <vehicle id="vid#180#3#8" type="vtype1" route="r3to8" depart="1" />
    <vehicle id="vid#181#2#9" type="vtype1" route="r2to9" depart="1" />
    <vehicle id="vid#182#2#9" type="vtype1" route="r2to9" depart="1" />
    <vehicle id="vid#183#1#10" type="vtype1" route="r1to10" depart="1" />
    <vehicle id="vid#184#1#10" type="vtype1" route="r1to10" depart="1" />
    <vehicle id="vid#185#2#10" type="vtype1" route="r2to10" depart="1" />
    <vehicle id="vid#186#3#10" type="vtype1" route="r3to10" depart="1" />
    <vehicle id="vid#187#2#8" type="vtype1" route="r2to8" depart="1" />
    <vehicle id="vid#188#2#8" type="vtype1" route="r2to8" depart="1" />
    <vehicle id="vid#189#1#10" type="vtype1" route="r1to10" depart="1" />
    <vehicle id="vid#190#3#8" type="vtype1" route="r3to8" depart="1" />
    <vehicle id="vid#191#1#9" type="vtype1" route="r1to9" depart="1" />
    <vehicle id="vid#192#2#8" type="vtype1" route="r2to8" depart="1" />
    <vehicle id="vid#193#1#9" type="vtype1" route="r1to9" depart="1" />
    <vehicle id="vid#194#3#10" type="vtype1" route="r3to10" depart="1" />
    <vehicle id="vid#195#3#9" type="vtype1" route="r3to9" depart="1" />
    <vehicle id="vid#196#1#9" type="vtype1" route="r1to9" depart="1" />
    <vehicle id="vid#197#1#8" type="vtype1" route="r1to8" depart="1" />
    <vehicle id="vid#198#2#9" type="vtype1" route="r2to9" depart="1" />
    <vehicle id="vid#199#2#9" type="vtype1" route="r2to9" depart="1" />
    <vehicle id="vid#200#2#8" type="vtype1" route="r2to8" depart="2" />
    <vehicle id="vid#201#2#10" type="vtype1" route="r2to10" depart="2" />
    <vehicle id="vid#202#3#8" type="vtype1" route="r3to8" depart="2" />
    <vehicle id="vid#203#1#9" type="vtype1" route="r1to9" depart="2" />
    <vehicle id="vid#204#2#9" type="vtype1" route="r2to9" depart="2" />
    <vehicle id="vid#205#3#10" type="vtype1" route="r3to10" depart="2" />
    <vehicle id="vid#206#3#8" type="vtype1" route="r3to8" depart="2" />
    <vehicle id="vid#207#1#8" type="vtype1" route="r1to8" depart="2" />
    <vehicle id="vid#208#1#9" type="vtype1" route="r1to9" depart="2" />
    <vehicle id="vid#209#3#8" type="vtype1" route="r3to8" depart="2" />
    <vehicle id="vid#210#2#9" type="vtype1" route="r2to9" depart="2" />
    <vehicle id="vid#211#1#10" type="vtype1" route="r1to10" depart="2" />
    <vehicle id="vid#212#2#8" type="vtype1" route="r2to8" depart="2" />
    <vehicle id="vid#213#2#8" type="vtype1" route="r2to8" depart="2" />
    <vehicle id="vid#214#3#10" type="vtype1" route="r3to10" depart="2" />
    <vehicle id="vid#215#1#9" type="vtype1" route="r1to9" depart="2" />
    <vehicle id="vid#216#1#10" type="vtype1" route="r1to10" depart="2" />
    <vehicle id="vid#217#2#8" type="vtype1" route="r2to8" depart="2" />
    <vehicle id="vid#218#1#10" type="vtype1" route="r1to10" depart="2" />
    <vehicle id="vid#219#2#10" type="vtype1" route="r2to10" depart="2" />
    <vehicle id="vid#220#3#10" type="vtype1" route="r3to10" depart="2" />
    <vehicle id="vid#221#2#10" type="vtype1" route="r2to10" depart="2" />
    <vehicle id="vid#222#3#9" type="vtype1" route="r3to9" depart="2" />
    <vehicle id="vid#223#3#9" type="vtype1" route="r3to9" depart="2" />
    <vehicle id="vid#224#3#9" type="vtype1" route="r3to9" depart="2" />
    <vehicle id="vid#225#3#10" type="vtype1" route="r3to10" depart="2" />
    <vehicle id="vid#226#2#8" type="vtype1" route="r2to8" depart="2" />
    <vehicle id="vid#227#1#9" type="vtype1" route="r1to9" depart="2" />
    <vehicle id="vid#228#3#9" type="vtype1" route="r3to9" depart="2" />
    <vehicle id="vid#229#2#8" type="vtype1" route="r2to8" depart="2" />
    <vehicle id="vid#230#1#8" type="vtype1" route="r1to8" depart="2" />
    <vehicle id="vid#231#1#8" type="vtype1" route="r1to8" depart="2" />
    <vehicle id="vid#232#2#8" type="vtype1" route="r2to8" depart="2" />
    <vehicle id="vid#233#1#10" type="vtype1" route="r1to10" depart="2" />
    <vehicle id="vid#234#3#8" type="vtype1" route="r3to8" depart="2" />
    <vehicle id="vid#235#2#9" type="vtype1" route="r2to9" depart="2" />
    <vehicle id="vid#236#2#8" type="vtype1" route="r2to8" depart="2" />
    <vehicle id="vid#237#2#10" type="vtype1" route="r2to10" depart="2" />
    <vehicle id="vid#238#2#10" type="vtype1" route="r2to10" depart="2" />
    <vehicle id="vid#239#3#10" type="vtype1" route="r3to10" depart="2" />
    <vehicle id="vid#240#2#8" type="vtype1" route="r2to8" depart="2" />
    <vehicle id="vid#241#2#10" type="vtype1" route="r2to10" depart="2" />
    <vehicle id="vid#242#3#10" type="vtype1" route="r3to10" depart="2" />
    <vehicle id="vid#243#2#10" type="vtype1" route="r2to10" depart="2" />
    <vehicle id="vid#244#2#9" type="vtype1" route="r2to9" depart="2" />
    <vehicle id="vid#245#1#8" type="vtype1" route="r1to8" depart="2" />
    <vehicle id="vid#246#2#8" type="vtype1" route="r2to8" depart="2" />
    <vehicle id="vid#247#2#10" type="vtype1" route="r2to10" depart="2" />
    <vehicle id="vid#248#2#8" type="vtype1" route="r2to8" depart="2" />
    <vehicle id="vid#249#2#8" type="vtype1" route="r2to8" depart="2" />
    <vehicle id="vid#250#2#8" type="vtype1" route="r2to8" depart="2" />
    <vehicle id="vid#251#2#9" type="vtype1" route="r2to9" depart="2" />
    <vehicle id="vid#252#1#9" type="vtype1" route="r1to9" depart="2" />
    <vehicle id="vid#253#1#9" type="vtype1" route="r1to9" depart="2" />
    <vehicle id="vid#254#1#9" type="vtype1" route="r1to9" depart="2" />
    <vehicle id="vid#255#1#8" type="vtype1" route="r1to8" depart="2" />
    <vehicle id="vid#256#3#9" type="vtype1" route="r3to9" depart="2" />
    <vehicle id="vid#257#3#10" type="vtype1" route="r3to10" depart="2" />
    <vehicle id="vid#258#1#8" type="vtype1" route="r1to8" depart="2" />
    <vehicle id="vid#259#1#9" type="vtype1" route="r1to9" depart="2" />
    <vehicle id="vid#260#3#9" type="vtype1" route="r3to9" depart="2" />
    <vehicle id="vid#261#2#10" type="vtype1" route="r2to10" depart="2" />
    <vehicle id="vid#262#2#10" type="vtype1" route="r2to10" depart="2" />
    <vehicle id="vid#263#3#8" type="vtype1" route="r3to8" depart="2" />
    <vehicle id="vid#264#1#8" type="vtype1" route="r1to8" depart="2" />
    <vehicle id="vid#265#1#10" type="vtype1" route="r1to10" depart="2" />
    <vehicle id="vid#266#2#8" type="vtype1" route="r2to8" depart="2" />
    <vehicle id="vid#267#3#10" type="vtype1" route="r3to10" depart="2" />
    <vehicle id="vid#268#1#9" type="vtype1" route="r1to9" depart="2" />
    <vehicle id="vid#269#3#8" type="vtype1" route="r3to8" depart="2" />
    <vehicle id="vid#270#3#10" type="vtype1" route="r3to10" depart="2" />
    <vehicle id="vid#271#1#8" type="vtype1" route="r1to8" depart="2" />
    <vehicle id="vid#272#1#10" type="vtype1" route="r1to10" depart="2" />
    <vehicle id="vid#273#3#9" type="vtype1" route="r3to9" depart="2" />
    <vehicle id="vid#274#3#8" type="vtype1" route="r3to8" depart="2" />
    <vehicle id="vid#275#3#9" type="vtype1" route="r3to9" depart="2" />
    <vehicle id="vid#276#1#10" type="vtype1" route="r1to10" depart="2" />
    <vehicle id="vid#277#3#9" type="vtype1" route="r3to9" depart="2" />
    <vehicle id="vid#278#1#10" type="vtype1" route="r1to10" depart="2" />
    <vehicle id="vid#279#3#9" type="vtype1" route="r3to9" depart="2" />
    <vehicle id="vid#280#2#9" type="vtype1" route="r2to9" depart="2" />
    <vehicle id="vid#281#2#9" type="vtype1" route="r2to9" depart="2" />
    <vehicle id="vid#282#3#10" type="vtype1" route="r3to10" depart="2" />
    <vehicle id="vid#283#1#10" type="vtype1" route="r1to10" depart="2" />
    <vehicle id="vid#284#2#10" type="vtype1" route="r2to10" depart="2" />
    <vehicle id="vid#285#3#9" type="vtype1" route="r3to9" depart="2" />
    <vehicle id="vid#286#3#10" type="vtype1" route="r3to10" depart="2" />
    <vehicle id="vid#287#1#10" type="vtype1" route="r1to10" depart="2" />
    <vehicle id="vid#288#2#9" type="vtype1" route="r2to9" depart="2" />
    <vehicle id="vid#289#2#10" type="vtype1" route="r2to10" depart="2" />
    <vehicle id="vid#290#1#10" type="vtype1" route="r1to10" depart="2" />
    <vehicle id="vid#291#3#8" type="vtype1" route="r3to8" depart="2" />
    <vehicle id="vid#292#3#8" type="vtype1" route="r3to8" depart="2" />
    <vehicle id="vid#293#2#9" type="vtype1" route="r2to9" depart="2" />
    <vehicle id="vid#294#2#8" type="vtype1" route="r2to8" depart="2" />
    <vehicle id="vid#295#3#8" type="vtype1" route="r3to8" depart="2" />
    <vehicle id="vid#296#1#10" type="vtype1" route="r1to10" depart="2" />
    <vehicle id="vid#297#2#10" type="vtype1" route="r2to10" depart="2" />
    <vehicle id="vid#298#3#8" type="vtype1" route="r3to8" depart="2" />
    <vehicle id="vid#299#1#10" type="vtype1" route="r1to10" depart="2" />
    <vehicle id="vid#300#1#10" type="vtype1" route="r1to10" depart="3" />
    <vehicle id="vid#301#2#10" type="vtype1" route="r2to10" depart="3" />
    <vehicle id="vid#302#3#9" type="vtype1" route="r3to9" depart="3" />
    <vehicle id="vid#303#2#10" type="vtype1" route="r2to10" depart="3" />
    <vehicle id="vid#304#1#8" type="vtype1" route="r1to8" depart="3" />
    <vehicle id="vid#305#3#8" type="vtype1" route="r3to8" depart="3" />
    <vehicle id="vid#306#2#9" type="vtype1" route="r2to9" depart="3" />
    <vehicle id="vid#307#2#9" type="vtype1" route="r2to9" depart="3" />
    <vehicle id="vid#308#3#8" type="vtype1" route="r3to8" depart="3" />
    <vehicle id="vid#309#3#8" type="vtype1" route="r3to8" depart="3" />
    <vehicle id="vid#310#1#8" type="vtype1" route="r1to8" depart="3" />
    <vehicle id="vid#311#1#8" type="vtype1" route="r1to8" depart="3" />
    <vehicle id="vid#312#2#10" type="vtype1" route="r2to10" depart="3" />
    <vehicle id="vid#313#1#8" type="vtype1" route="r1to8" depart="3" />
    <vehicle id="vid#314#2#10" type="vtype1" route="r2to10" depart="3" />
    <vehicle id="vid#315#3#9" type="vtype1" route="r3to9" depart="3" />
    <vehicle id="vid#316#1#8" type="vtype1" route="r1to8" depart="3" />
    <vehicle id="vid#317#1#8" type="vtype1" route="r1to8" depart="3" />
    <vehicle id="vid#318#1#8" type="vtype1" route="r1to8" depart="3" />
    <vehicle id="vid#319#2#8" type="vtype1" route="r2to8" depart="3" />
    <vehicle id="vid#320#3#9" type="vtype1" route="r3to9" depart="3" />
    <vehicle id="vid#321#3#8" type="vtype1" route="r3to8" depart="3" />
    <vehicle id="vid#322#3#9" type="vtype1" route="r3to9" depart="3" />
    <vehicle id="vid#323#3#9" type="vtype1" route="r3to9" depart="3" />
    <vehicle id="vid#324#2#9" type="vtype1" route="r2to9" depart="3" />
    <vehicle id="vid#325#1#8" type="vtype1" route="r1to8" depart="3" />
    <vehicle id="vid#326#3#9" type="vtype1" route="r3to9" depart="3" />
    <vehicle id="vid#327#3#9" type="vtype1" route="r3to9" depart="3" />
    <vehicle id="vid#328#1#9" type="vtype1" route="r1to9" depart="3" />
    <vehicle id="vid#329#1#8" type="vtype1" route="r1to8" depart="3" />
    <vehicle id="vid#330#2#8" type="vtype1" route="r2to8" depart="3" />
    <vehicle id="vid#331#3#8" type="vtype1" route="r3to8" depart="3" />
    <vehicle id="vid#332#3#9" type="vtype1" route="r3to9" depart="3" />
    <vehicle id="vid#333#3#8" type="vtype1" route="r3to8" depart="3" />
    <vehicle id="vid#334#2#9" type="vtype1" route="r2to9" depart="3" />
    <vehicle id="vid#335#2#10" type="vtype1" route="r2to10" depart="3" />
    <vehicle id="vid#336#3#8" type="vtype1" route="r3to8" depart="3" />
    <vehicle id="vid#337#2#9" type="vtype1" route="r2to9" depart="3" />
    <vehicle id="vid#338#3#10" type="vtype1" route="r3to10" depart="3" />
    <vehicle id="vid#339#1#8" type="vtype1" route="r1to8" depart="3" />
    <vehicle id="vid#340#2#8" type="vtype1" route="r2to8" depart="3" />
    <vehicle id="vid#341#1#8" type="vtype1" route="r1to8" depart="3" />
    <vehicle id="vid#342#1#9" type="vtype1" route="r1to9" depart="3" />
    <vehicle id="vid#343#2#8" type="vtype1" route="r2to8" depart="3" />
    <vehicle id="vid#344#1#10" type="vtype1" route="r1to10" depart="3" />
    <vehicle id="vid#345#3#9" type="vtype1" route="r3to9" depart="3" />
    <vehicle id="vid#346#3#10" type="vtype1" route="r3to10" depart="3" />
    <vehicle id="vid#347#3#9" type="vtype1" route="r3to9" depart="3" />
    <vehicle id="vid#348#2#10" type="vtype1" route="r2to10" depart="3" />
    <vehicle id="vid#349#2#9" type="vtype1" route="r2to9" depart="3" />
    <vehicle id="vid#350#2#10" type="vtype1" route="r2to10" depart="3" />
    <vehicle id="vid#351#3#8" type="vtype1" route="r3to8" depart="3" />
    <vehicle id="vid#352#1#8" type="vtype1" route="r1to8" depart="3" />
    <vehicle id="vid#353#3#9" type="vtype1" route="r3to9" depart="3" />
    <vehicle id="vid#354#1#8" type="vtype1" route="r1to8" depart="3" />
    <vehicle id="vid#355#3#10" type="vtype1" route="r3to10" depart="3" />
    <vehicle id="vid#356#3#9" type="vtype1" route="r3to9" depart="3" />
    <vehicle id="vid#357#2#8" type="vtype1" route="r2to8" depart="3" />
    <vehicle id="vid#358#1#9" type="vtype1" route="r1to9" depart="3" />
    <vehicle id="vid#359#1#8" type="vtype1" route="r1to8" depart="3" />
    <vehicle id="vid#360#1#10" type="vtype1" route="r1to10" depart="3" />
    <vehicle id="vid#361#3#9" type="vtype1" route="r3to9" depart="3" />
    <vehicle id="vid#362#3#10" type="vtype1" route="r3to10" depart="3" />
    <vehicle id="vid#363#3#8" type="vtype1" route="r3to8" depart="3" />
    <vehicle id="vid#364#1#10" type="vtype1" route="r1to10" depart="3" />
    <vehicle id="vid#365#2#9" type="vtype1" route="r2to9" depart="3" />
    <vehicle id="vid#366#3#8" type="vtype1" route="r3to8" depart="3" />
    <vehicle id="vid#367#2#9" type="vtype1" route="r2to9" depart="3" />
    <vehicle id="vid#368#2#8" type="vtype1" route="r2to8" depart="3" />
    <vehicle id="vid#369#2#8" type="vtype1" route="r2to8" depart="3" />
    <vehicle id="vid#370#3#10" type="vtype1" route="r3to10" depart="3" />
    <vehicle id="vid#371#1#10" type="vtype1" route="r1to10" depart="3" />
    <vehicle id="vid#372#1#10" type="vtype1" route="r1to10" depart="3" />
    <vehicle id="vid#373#3#9" type="vtype1" route="r3to9" depart="3" />
    <vehicle id="vid#374#2#8" type="vtype1" route="r2to8" depart="3" />
    <vehicle id="vid#375#1#10" type="vtype1" route="r1to10" depart="3" />
    <vehicle id="vid#376#2#9" type="vtype1" route="r2to9" depart="3" />
    <vehicle id="vid#377#3#9" type="vtype1" route="r3to9" depart="3" />
    <vehicle id="vid#378#2#9" type="vtype1" route="r2to9" depart="3" />
    <vehicle id="vid#379#1#9" type="vtype1" route="r1to9" depart="3" />
    <vehicle id="vid#380#3#9" type="vtype1" route="r3to9" depart="3" />