<edges>
	<!--3 edges from 1-->
    <edge from="1" id="1to2" to="2" length="100.0" numLanes="1" speed="10" />
    <edge from="1" id="1to3" to="3" length="100.0" numLanes="1" speed="10" />
    <edge from="1" id="1to4" to="4" length="100.0" numLanes="1" speed="10" />
    
    <!--3 edges from 2-->
    <edge from="2" id="2to3" to="3" length="100.0" numLanes="1" speed="10" />
    <edge from="2" id="2to5" to="5" length="100.0" numLanes="1" speed="10" />
    <edge from="2" id="2to4" to="4" length="100.0" numLanes="1" speed="10" />
    <!--3 edges from 3-->
   
    <edge from="3" id="3to4" to="4" length="100.0" numLanes="1" speed="10" />
    <edge from="3" id="3to5" to="5" length="100.0" numLanes="1" speed="10" />
    <edge from="3" id="3to6" to="6" length="100.0" numLanes="1" speed="10" />

   <!--3 edges from 4-->

     <edge from="4" id="4to5" to="5" length="100.0" numLanes="1" speed="10" />
     <edge from="4" id="4to6" to="6" length="100.0" numLanes="1" speed="10" />
     <edge from="4" id="4to7" to="7" length="100.0" numLanes="1" speed="10" />

   <!--3 edges from 5-->

     <edge from="5" id="5to6" to="6" length="100.0" numLanes="1" speed="10" />
     <edge from="5" id="5to8" to="8" length="100.0" numLanes="1" speed="10" />
     <edge from="5" id="5to7" to="7" length="100.0" numLanes="1" speed="10" />
     
   <!--3 edges from 6-->
     
     <edge from="6" id="6to7" to="7" length="100.0" numLanes="1" speed="10" /> 
     <edge from="6" id="6to8" to="8" length="100.0" numLanes="1" speed="10" /> 
     <edge from="6" id="6to9" to="9" length="100.0" numLanes="1" speed="10" />  
     
    <!--3 edges from 7-->

     <edge from="7" id="7to8" to="8" length="100.0" numLanes="1" speed="10" />
     <edge from="7" id="7to9" to="9" length="100.0" numLanes="1" speed="10" />
     <edge from="7" id="7to10" to="10" length="100.0" numLanes="1" speed="10" />
 
   <!--2 edges from 8-->
     
    <edge from="8" id="8to9" to="9" length="100.0" numLanes="1" speed="10" />
    <edge from="8" id="8to10" to="10" length="100.0" numLanes="1" speed="10" />

    <!--1 from 9-->
      <edge from="9" id="9to10" to="10" length="100.0" numLanes="1" speed="10" />        
</edges>
