<?xml version="1.0" encoding="UTF-8"?>

<!-- generated on Thu Nov 17 19:34:35 2016 by SUMO netconvert Version 0.19.0
<?xml version="1.0" encoding="UTF-8"?>

<configuration xmlns:xsi="http://www.w3.org/2001/XMLSchema-instance" xsi:noNamespaceSchemaLocation="http://sumo-sim.org/xsd/netconvertConfiguration.xsd">

    <input>
        <node-files value="sim.nod.xml"/>
        <edge-files value="sim.edg.xml"/>
    </input>

    <output>
        <output-file value="sim.net.xml"/>
    </output>

</configuration>
-->

<net version="0.13" xmlns:xsi="http://www.w3.org/2001/XMLSchema-instance" xsi:noNamespaceSchemaLocation="http://sumo-sim.org/xsd/net_file.xsd">

    <location netOffset="250.00,70.00" convBoundary="0.00,0.00,300.00,140.00" origBoundary="-250.00,-70.00,50.00,70.00" projParameter="!"/>

    <edge id=":2_0" function="internal">
        <lane id=":2_0_0" index="0" speed="10.00" length="6.82" shape="64.56,132.22 66.22,133.53 67.40,133.66 68.11,132.60 68.35,130.37"/>
    </edge>
    <edge id=":2_1" function="internal">
        <lane id=":2_1_0" index="0" speed="10.00" length="9.63" shape="64.56,132.22 66.86,133.99 68.86,134.39 70.58,133.43 72.01,131.12"/>
    </edge>
    <edge id=":2_2" function="internal">
        <lane id=":2_2_0" index="0" speed="10.00" length="10.43" shape="64.56,132.22 67.37,134.90 69.69,136.82 71.51,137.97 72.84,138.35"/>
    </edge>
    <edge id=":3_0" function="internal">
        <lane id=":3_0_0" index="0" speed="10.00" length="5.59" shape="93.57,68.35 95.19,68.12 96.13,67.45 96.38,66.32 95.95,64.74"/>
    </edge>
    <edge id=":3_1" function="internal">
        <lane id=":3_1_0" index="0" speed="10.00" length="12.47" shape="93.57,68.35 96.93,68.35 99.81,68.35 102.69,68.35 106.05,68.35"/>
    </edge>
    <edge id=":3_2" function="internal">
        <lane id=":3_2_0" index="0" speed="10.00" length="11.84" shape="93.57,68.35 96.92,68.59 99.85,69.30 102.37,70.48 104.48,72.14"/>
    </edge>
    <edge id=":3_3" function="internal">
        <lane id=":3_3_0" index="0" speed="10.00" length="7.49" shape="97.37,71.96 97.59,70.77 97.43,69.17 96.88,67.16 95.95,64.74"/>
    </edge>
    <edge id=":3_4" function="internal">
        <lane id=":3_4_0" index="0" speed="10.00" length="9.91" shape="97.37,71.96 98.49,70.38 100.31,69.25 102.83,68.58 106.05,68.35"/>
    </edge>
    <edge id=":3_5" function="internal">
        <lane id=":3_5_0" index="0" speed="10.00" length="8.95" shape="97.37,71.96 98.59,70.15 100.18,69.58 102.14,70.24 104.48,72.14"/>
    </edge>
    <edge id=":4_0" function="internal">
        <lane id=":4_0_0" index="0" speed="10.00" length="17.11" shape="68.35,9.63 68.97,4.70 70.83,1.17 73.93,-0.94 78.26,-1.65"/>
    </edge>
    <edge id=":4_1" function="internal">
        <lane id=":4_1_0" index="0" speed="10.00" length="16.51" shape="68.35,9.63 68.98,4.55 70.89,1.70 74.06,1.09 78.50,2.70"/>
    </edge>
    <edge id=":4_2" function="internal">
        <lane id=":4_2_0" index="0" speed="10.00" length="16.40" shape="68.35,9.63 68.84,3.85 70.29,1.26 72.72,1.89 76.11,5.72"/>
    </edge>
    <edge id=":4_3" function="internal">
        <lane id=":4_3_0" index="0" speed="10.00" length="15.59" shape="71.89,8.60 70.64,4.11 71.29,0.91 73.83,-1.01 78.26,-1.65"/>
    </edge>
    <edge id=":4_4" function="internal">
        <lane id=":4_4_0" index="0" speed="10.00" length="15.94" shape="71.89,8.60 70.33,3.62 70.91,0.98 73.63,0.67 78.50,2.70"/>
    </edge>
    <edge id=":4_5" function="internal">
        <lane id=":4_5_0" index="0" speed="10.00" length="7.46" shape="71.89,8.60 71.87,6.29 72.56,5.05 73.98,4.85 76.11,5.72"/>
    </edge>
    <edge id=":4_6" function="internal">
        <lane id=":4_6_0" index="0" speed="10.00" length="14.88" shape="64.56,3.11 67.20,1.03 70.36,-0.46 74.05,-1.35 78.26,-1.65"/>
    </edge>
    <edge id=":4_7" function="internal">
        <lane id=":4_7_0" index="0" speed="10.00" length="15.03" shape="64.56,3.11 67.36,1.15 70.62,0.44 74.33,0.95 78.50,2.70"/>
    </edge>
    <edge id=":4_8" function="internal">
        <lane id=":4_8_0" index="0" speed="10.00" length="14.00" shape="64.56,3.11 67.40,1.15 70.27,0.94 73.18,2.46 76.11,5.72"/>
    </edge>
    <edge id=":5_0" function="internal">
        <lane id=":5_0_0" index="0" speed="10.00" length="7.56" shape="164.58,129.57 166.23,131.47 167.41,131.91 168.11,130.87 168.35,128.36"/>
    </edge>
    <edge id=":5_1" function="internal">
        <lane id=":5_1_0" index="0" speed="10.00" length="10.11" shape="164.58,129.57 166.94,132.32 168.97,133.50 170.66,133.10 172.01,131.12"/>
    </edge>
    <edge id=":5_2" function="internal">
        <lane id=":5_2_0" index="0" speed="10.00" length="12.21" shape="164.58,129.57 167.44,133.41 169.78,136.15 171.58,137.80 172.84,138.35"/>
    </edge>
    <edge id=":5_3" function="internal">
        <lane id=":5_3_0" index="0" speed="10.00" length="8.86" shape="163.67,131.34 165.72,132.91 167.18,132.93 168.06,131.42 168.35,128.36"/>
    </edge>
    <edge id=":5_4" function="internal">
        <lane id=":5_4_0" index="0" speed="10.00" length="10.57" shape="163.67,131.34 166.36,133.49 168.64,134.17 170.53,133.38 172.01,131.12"/>
    </edge>
    <edge id=":5_5" function="internal">
        <lane id=":5_5_0" index="0" speed="10.00" length="11.66" shape="163.67,131.34 166.88,134.41 169.47,136.60 171.46,137.91 172.84,138.35"/>
    </edge>
    <edge id=":5_6" function="internal">
        <lane id=":5_6_0" index="0" speed="10.00" length="10.62" shape="166.24,138.35 167.16,137.73 167.82,135.85 168.22,132.73 168.35,128.36"/>
    </edge>
    <edge id=":5_7" function="internal">
        <lane id=":5_7_0" index="0" speed="10.00" length="9.60" shape="166.24,138.35 167.60,137.90 169.02,136.54 170.49,134.28 172.01,131.12"/>
    </edge>
    <edge id=":5_8" function="internal">
        <lane id=":5_8_0" index="0" speed="10.00" length="6.60" shape="166.24,138.35 172.84,138.35"/>
    </edge>
    <edge id=":6_0" function="internal">
        <lane id=":6_0_0" index="0" speed="10.00" length="7.22" shape="191.27,63.42 193.46,64.34 194.68,64.19 194.94,62.98 194.23,60.72"/>
    </edge>
    <edge id=":6_1" function="internal">
        <lane id=":6_1_0" index="0" speed="10.00" length="11.67" shape="191.27,63.42 195.11,65.26 198.22,66.21 200.58,66.28 202.19,65.47"/>
    </edge>
    <edge id=":6_2" function="internal">
        <lane id=":6_2_0" index="0" speed="10.00" length="12.73" shape="191.27,63.42 194.33,64.93 197.05,66.20 199.60,67.68 202.18,69.84"/>
    </edge>
    <edge id=":6_3" function="internal">
        <lane id=":6_3_0" index="0" speed="10.00" length="9.62" shape="192.57,68.35 194.52,67.87 195.45,66.44 195.35,64.06 194.23,60.72"/>
    </edge>
    <edge id=":6_4" function="internal">
        <lane id=":6_4_0" index="0" speed="10.00" length="10.28" shape="192.57,68.35 195.70,68.17 198.35,67.63 200.51,66.73 202.19,65.47"/>
    </edge>
    <edge id=":6_5" function="internal">
        <lane id=":6_5_0" index="0" speed="10.00" length="9.85" shape="192.57,68.35 196.21,68.44 199.03,68.72 201.02,69.19 202.18,69.84"/>
    </edge>
    <edge id=":6_6" function="internal">
        <lane id=":6_6_0" index="0" speed="10.00" length="11.80" shape="197.37,71.96 197.48,70.52 197.00,68.17 195.91,64.90 194.23,60.72"/>
    </edge>
    <edge id=":6_7" function="internal">
        <lane id=":6_7_0" index="0" speed="10.00" length="8.08" shape="197.37,71.96 202.19,65.47"/>
    </edge>
    <edge id=":6_8" function="internal">
        <lane id=":6_8_0" index="0" speed="10.00" length="6.61" shape="197.37,71.96 198.45,70.01 199.61,69.01 200.85,68.95 202.18,69.84"/>
    </edge>
    <edge id=":7_0" function="internal">
        <lane id=":7_0_0" index="0" speed="10.00" length="17.11" shape="168.35,9.63 168.97,4.70 170.83,1.17 173.93,-0.94 178.26,-1.65"/>
    </edge>
    <edge id=":7_1" function="internal">
        <lane id=":7_1_0" index="0" speed="10.00" length="16.51" shape="168.35,9.63 168.98,4.55 170.89,1.70 174.06,1.09 178.50,2.70"/>
    </edge>
    <edge id=":7_2" function="internal">
        <lane id=":7_2_0" index="0" speed="10.00" length="16.40" shape="168.35,9.63 168.84,3.85 170.29,1.26 172.72,1.89 176.11,5.72"/>
    </edge>
    <edge id=":7_3" function="internal">
        <lane id=":7_3_0" index="0" speed="10.00" length="15.59" shape="171.89,8.60 170.64,4.11 171.29,0.91 173.83,-1.01 178.26,-1.65"/>
    </edge>
    <edge id=":7_4" function="internal">
        <lane id=":7_4_0" index="0" speed="10.00" length="15.94" shape="171.89,8.60 170.33,3.62 170.91,0.98 173.63,0.67 178.50,2.70"/>
    </edge>
    <edge id=":7_5" function="internal">
        <lane id=":7_5_0" index="0" speed="10.00" length="7.46" shape="171.89,8.60 171.87,6.29 172.56,5.05 173.98,4.85 176.11,5.72"/>
    </edge>
    <edge id=":7_6" function="internal">
        <lane id=":7_6_0" index="0" speed="10.00" length="13.01" shape="165.25,-1.65 168.69,-1.65 171.76,-1.65 174.82,-1.65 178.26,-1.65"/>
    </edge>
    <edge id=":7_7" function="internal">
        <lane id=":7_7_0" index="0" speed="10.00" length="14.10" shape="165.25,-1.65 168.81,-1.30 172.10,-0.36 175.28,1.02 178.50,2.70"/>
    </edge>
    <edge id=":7_8" function="internal">
        <lane id=":7_8_0" index="0" speed="10.00" length="13.60" shape="165.25,-1.65 168.03,-1.19 170.77,0.19 173.46,2.50 176.11,5.72"/>
    </edge>
    <edge id=":8_0" function="internal">
        <lane id=":8_0_0" index="0" speed="10.00" length="7.56" shape="264.58,129.57 266.23,131.47 267.41,131.91 268.11,130.87 268.35,128.36"/>
    </edge>
    <edge id=":8_1" function="internal">
        <lane id=":8_1_0" index="0" speed="10.00" length="10.11" shape="264.58,129.57 266.94,132.32 268.97,133.50 270.66,133.10 272.01,131.12"/>
    </edge>
    <edge id=":8_2" function="internal">
        <lane id=":8_2_0" index="0" speed="10.00" length="8.86" shape="263.67,131.34 265.72,132.91 267.18,132.93 268.06,131.42 268.35,128.36"/>
    </edge>
    <edge id=":8_3" function="internal">
        <lane id=":8_3_0" index="0" speed="10.00" length="10.57" shape="263.67,131.34 266.36,133.49 268.64,134.17 270.53,133.38 272.01,131.12"/>
    </edge>
    <edge id=":8_4" function="internal">
        <lane id=":8_4_0" index="0" speed="10.00" length="10.62" shape="266.24,138.35 267.16,137.73 267.82,135.85 268.22,132.73 268.35,128.36"/>
    </edge>
    <edge id=":8_5" function="internal">
        <lane id=":8_5_0" index="0" speed="10.00" length="9.60" shape="266.24,138.35 267.60,137.90 269.02,136.54 270.49,134.28 272.01,131.12"/>
    </edge>
    <edge id=":9_0" function="internal">
        <lane id=":9_0_0" index="0" speed="10.00" length="12.04" shape="268.35,4.68 268.58,-0.35 269.27,-2.72 270.41,-2.44 272.01,0.50"/>
    </edge>
    <edge id=":9_1" function="internal">
        <lane id=":9_1_0" index="0" speed="10.00" length="8.65" shape="263.95,-1.65 267.13,-1.52 269.54,-1.11 271.16,-0.44 272.01,0.50"/>
    </edge>
    <edge id=":9_2" function="internal">
        <lane id=":9_2_0" index="0" speed="10.00" length="9.19" shape="264.56,3.11 267.27,0.70 269.42,-0.54 271.00,-0.61 272.01,0.50"/>
    </edge>

    <edge id="1to2" from="1" to="2" priority="-1" length="100.00">
        <lane id="1to2_0" index="0" speed="10.00" length="100.00" shape="4.48,72.14 64.56,132.22"/>
    </edge>
    <edge id="1to3" from="1" to="3" priority="-1" length="100.00">
        <lane id="1to3_0" index="0" speed="10.00" length="100.00" shape="6.05,68.35 93.57,68.35"/>
    </edge>
    <edge id="1to4" from="1" to="4" priority="-1" length="100.00">
        <lane id="1to4_0" index="0" speed="10.00" length="100.00" shape="3.11,64.56 64.56,3.11"/>
    </edge>
    <edge id="2to3" from="2" to="3" priority="-1" length="100.00">
        <lane id="2to3_0" index="0" speed="10.00" length="100.00" shape="72.01,131.12 97.37,71.96"/>
    </edge>
    <edge id="2to4" from="2" to="4" priority="-1" length="100.00">
        <lane id="2to4_0" index="0" speed="10.00" length="100.00" shape="68.35,130.37 68.35,9.63"/>
    </edge>
    <edge id="2to5" from="2" to="5" priority="-1" length="100.00">
        <lane id="2to5_0" index="0" speed="10.00" length="100.00" shape="72.84,138.35 166.24,138.35"/>
    </edge>
    <edge id="3to4" from="3" to="4" priority="-1" length="100.00">
        <lane id="3to4_0" index="0" speed="10.00" length="100.00" shape="95.95,64.74 71.89,8.60"/>
    </edge>
    <edge id="3to5" from="3" to="5" priority="-1" length="100.00">
        <lane id="3to5_0" index="0" speed="10.00" length="100.00" shape="104.48,72.14 163.67,131.34"/>
    </edge>
    <edge id="3to6" from="3" to="6" priority="-1" length="100.00">
        <lane id="3to6_0" index="0" speed="10.00" length="100.00" shape="106.05,68.35 192.57,68.35"/>
    </edge>
    <edge id="4to5" from="4" to="5" priority="-1" length="100.00">
        <lane id="4to5_0" index="0" speed="10.00" length="100.00" shape="76.11,5.72 164.58,129.57"/>
    </edge>
    <edge id="4to6" from="4" to="6" priority="-1" length="100.00">
        <lane id="4to6_0" index="0" speed="10.00" length="100.00" shape="78.50,2.70 191.27,63.42"/>
    </edge>
    <edge id="4to7" from="4" to="7" priority="-1" length="100.00">
        <lane id="4to7_0" index="0" speed="10.00" length="100.00" shape="78.26,-1.65 165.25,-1.65"/>
    </edge>
    <edge id="5to6" from="5" to="6" priority="-1" length="100.00">
        <lane id="5to6_0" index="0" speed="10.00" length="100.00" shape="172.01,131.12 197.37,71.96"/>
    </edge>
    <edge id="5to7" from="5" to="7" priority="-1" length="100.00">
        <lane id="5to7_0" index="0" speed="10.00" length="100.00" shape="168.35,128.36 168.35,9.63"/>
    </edge>
    <edge id="5to8" from="5" to="8" priority="-1" length="100.00">
        <lane id="5to8_0" index="0" speed="10.00" length="100.00" shape="172.84,138.35 266.24,138.35"/>
    </edge>
    <edge id="6to7" from="6" to="7" priority="-1" length="100.00">
        <lane id="6to7_0" index="0" speed="10.00" length="100.00" shape="194.23,60.72 171.89,8.60"/>
    </edge>
    <edge id="6to8" from="6" to="8" priority="-1" length="100.00">
        <lane id="6to8_0" index="0" speed="10.00" length="100.00" shape="202.18,69.84 263.67,131.34"/>
    </edge>
    <edge id="6to9" from="6" to="9" priority="-1" length="100.00">
        <lane id="6to9_0" index="0" speed="10.00" length="100.00" shape="202.19,65.47 264.56,3.11"/>
    </edge>
    <edge id="7to10" from="7" to="10" priority="-1" length="100.00">
        <lane id="7to10_0" index="0" speed="10.00" length="100.00" shape="178.50,2.70 295.93,65.94"/>
    </edge>
    <edge id="7to8" from="7" to="8" priority="-1" length="100.00">
        <lane id="7to8_0" index="0" speed="10.00" length="100.00" shape="176.11,5.72 264.58,129.57"/>
    </edge>
    <edge id="7to9" from="7" to="9" priority="-1" length="100.00">
        <lane id="7to9_0" index="0" speed="10.00" length="100.00" shape="178.26,-1.65 263.95,-1.65"/>
    </edge>
    <edge id="8to10" from="8" to="10" priority="-1" length="100.00">
        <lane id="8to10_0" index="0" speed="10.00" length="100.00" shape="272.01,131.12 298.03,70.42"/>
    </edge>
    <edge id="8to9" from="8" to="9" priority="-1" length="100.00">
        <lane id="8to9_0" index="0" speed="10.00" length="100.00" shape="268.35,128.36 268.35,4.68"/>
    </edge>
    <edge id="9to10" from="9" to="10" priority="-1" length="100.00">
        <lane id="9to10_0" index="0" speed="10.00" length="100.00" shape="272.01,0.50 298.89,63.23"/>
    </edge>

    <junction id="1" type="unregulated" x="0.00" y="70.00" incLanes="" intLanes="" shape="3.34,73.27 5.61,71.01 6.05,69.95 6.05,66.75 4.24,65.69 1.98,63.43"/>
    <junction id="10" type="unregulated" x="300.00" y="70.00" incLanes="9to10_0 7to10_0 8to10_0" intLanes="" shape="300.36,62.60 297.42,63.86 296.69,64.53 295.18,67.35 296.56,69.79 299.50,71.05"/>
    <junction id="2" type="priority" x="70.00" y="140.00" incLanes="1to2_0" intLanes=":2_0_0 :2_1_0 :2_2_0" shape="72.84,139.95 72.84,136.75 73.48,131.75 70.54,130.49 69.95,130.37 66.75,130.37 65.69,131.09 63.43,133.36">
        <request index="0" response="000" foes="000" cont="0"/>
        <request index="1" response="000" foes="000" cont="0"/>
        <request index="2" response="000" foes="000" cont="0"/>
    </junction>
    <junction id="3" type="right_before_left" x="100.00" y="70.00" incLanes="1to3_0 2to3_0" intLanes=":3_0_0 :3_1_0 :3_2_0 :3_3_0 :3_4_0 :3_5_0" shape="103.34,73.27 105.61,71.01 106.05,69.95 106.05,66.75 97.42,64.11 94.48,65.37 93.57,66.75 93.57,69.95 95.89,71.33 98.84,72.59">
        <request index="0" response="000000" foes="001000" cont="0"/>
        <request index="1" response="000000" foes="011000" cont="0"/>
        <request index="2" response="000000" foes="111000" cont="0"/>
        <request index="3" response="000111" foes="000111" cont="0"/>
        <request index="4" response="000110" foes="000110" cont="0"/>
        <request index="5" response="000100" foes="000100" cont="0"/>
    </junction>
    <junction id="4" type="right_before_left" x="70.00" y="0.00" incLanes="2to4_0 3to4_0 1to4_0" intLanes=":4_0_0 :4_1_0 :4_2_0 :4_3_0 :4_4_0 :4_5_0 :4_6_0 :4_7_0 :4_8_0" shape="66.75,9.63 69.95,9.63 70.54,9.51 77.44,4.82 77.74,4.11 79.26,1.30 78.26,-0.05 78.26,-3.25 63.43,1.98 65.69,4.24">
        <request index="0" response="111000000" foes="111001000" cont="0"/>
        <request index="1" response="110000000" foes="110011000" cont="0"/>
        <request index="2" response="100000000" foes="100111000" cont="0"/>
        <request index="3" response="111000111" foes="111000111" cont="0"/>
        <request index="4" response="110000110" foes="110000110" cont="0"/>
        <request index="5" response="100000100" foes="100000100" cont="0"/>
        <request index="6" response="000000000" foes="000001001" cont="0"/>
        <request index="7" response="000000000" foes="000011011" cont="0"/>
        <request index="8" response="000000000" foes="000111111" cont="0"/>
    </junction>
    <junction id="5" type="right_before_left" x="170.00" y="140.00" incLanes="4to5_0 3to5_0 2to5_0" intLanes=":5_0_0 :5_1_0 :5_2_0 :5_3_0 :5_4_0 :5_5_0 :5_6_0 :5_7_0 :5_8_0" shape="172.84,139.95 172.84,136.75 173.48,131.75 170.54,130.49 169.95,128.36 166.75,128.36 165.88,128.64 163.27,130.50 166.24,136.75 166.24,139.95">
        <request index="0" response="000000000" foes="001001000" cont="0"/>
        <request index="1" response="000000000" foes="011011000" cont="0"/>
        <request index="2" response="000000000" foes="111111000" cont="0"/>
        <request index="3" response="000000111" foes="001000111" cont="0"/>
        <request index="4" response="000000110" foes="011000110" cont="0"/>
        <request index="5" response="000000100" foes="111000100" cont="0"/>
        <request index="6" response="000111111" foes="000111111" cont="0"/>
        <request index="7" response="000110110" foes="000110110" cont="0"/>
        <request index="8" response="000100100" foes="000100100" cont="0"/>
    </junction>
    <junction id="6" type="right_before_left" x="200.00" y="70.00" incLanes="4to6_0 3to6_0 5to6_0" intLanes=":6_0_0 :6_1_0 :6_2_0 :6_3_0 :6_4_0 :6_5_0 :6_6_0 :6_7_0 :6_8_0" shape="201.04,70.97 203.31,68.71 203.32,66.61 201.06,64.34 195.70,60.09 192.76,61.35 192.03,62.02 190.51,64.83 192.57,66.75 192.57,69.95 195.89,71.33 198.84,72.59">
        <request index="0" response="000000000" foes="001001000" cont="0"/>
        <request index="1" response="000000000" foes="011011000" cont="0"/>
        <request index="2" response="000000000" foes="111111000" cont="0"/>
        <request index="3" response="000000111" foes="001000111" cont="0"/>
        <request index="4" response="000000110" foes="011000110" cont="0"/>
        <request index="5" response="000000100" foes="111000100" cont="0"/>
        <request index="6" response="000111111" foes="000111111" cont="0"/>
        <request index="7" response="000110110" foes="000110110" cont="0"/>
        <request index="8" response="000100100" foes="000100100" cont="0"/>
    </junction>
    <junction id="7" type="right_before_left" x="170.00" y="0.00" incLanes="5to7_0 6to7_0 4to7_0" intLanes=":7_0_0 :7_1_0 :7_2_0 :7_3_0 :7_4_0 :7_5_0 :7_6_0 :7_7_0 :7_8_0" shape="166.75,9.63 169.95,9.63 170.54,9.51 177.44,4.82 177.74,4.11 179.26,1.30 178.26,-0.05 178.26,-3.25 165.25,-3.25 165.25,-0.05">
        <request index="0" response="111000000" foes="111001000" cont="0"/>
        <request index="1" response="110000000" foes="110011000" cont="0"/>
        <request index="2" response="100000000" foes="100111000" cont="0"/>
        <request index="3" response="111000111" foes="111000111" cont="0"/>
        <request index="4" response="110000110" foes="110000110" cont="0"/>
        <request index="5" response="100000100" foes="100000100" cont="0"/>
        <request index="6" response="000000000" foes="000001001" cont="0"/>
        <request index="7" response="000000000" foes="000011011" cont="0"/>
        <request index="8" response="000000000" foes="000111111" cont="0"/>
    </junction>
    <junction id="8" type="right_before_left" x="270.00" y="140.00" incLanes="7to8_0 6to8_0 5to8_0" intLanes=":8_0_0 :8_1_0 :8_2_0 :8_3_0 :8_4_0 :8_5_0" shape="273.48,131.75 270.54,130.49 269.95,128.36 266.75,128.36 265.88,128.64 263.27,130.50 266.24,136.75 266.24,139.95">
        <request index="0" response="000000" foes="010100" cont="0"/>
        <request index="1" response="000000" foes="111100" cont="0"/>
        <request index="2" response="000011" foes="010011" cont="0"/>
        <request index="3" response="000010" foes="110010" cont="0"/>
        <request index="4" response="001111" foes="001111" cont="0"/>
        <request index="5" response="001010" foes="001010" cont="0"/>
    </junction>
    <junction id="9" type="right_before_left" x="270.00" y="0.00" incLanes="8to9_0 7to9_0 6to9_0" intLanes=":9_0_0 :9_1_0 :9_2_0" shape="266.75,4.68 269.95,4.68 270.54,1.14 273.48,-0.13 263.95,-3.25 263.95,-0.05 263.43,1.98 265.69,4.24">
        <request index="0" response="110" foes="110" cont="0"/>
        <request index="1" response="000" foes="101" cont="0"/>
        <request index="2" response="010" foes="011" cont="0"/>
    </junction>

    <connection from="1to2" to="2to4" fromLane="0" toLane="0" via=":2_0_0" dir="r" state="M"/>
    <connection from="1to2" to="2to3" fromLane="0" toLane="0" via=":2_1_0" dir="R" state="M"/>
    <connection from="1to2" to="2to5" fromLane="0" toLane="0" via=":2_2_0" dir="R" state="M"/>
    <connection from="1to3" to="3to4" fromLane="0" toLane="0" via=":3_0_0" dir="r" state="="/>
    <connection from="1to3" to="3to6" fromLane="0" toLane="0" via=":3_1_0" dir="s" state="="/>
    <connection from="1to3" to="3to5" fromLane="0" toLane="0" via=":3_2_0" dir="l" state="="/>
    <connection from="1to4" to="4to7" fromLane="0" toLane="0" via=":4_6_0" dir="L" state="="/>
    <connection from="1to4" to="4to6" fromLane="0" toLane="0" via=":4_7_0" dir="L" state="="/>
    <connection from="1to4" to="4to5" fromLane="0" toLane="0" via=":4_8_0" dir="l" state="="/>
    <connection from="2to3" to="3to4" fromLane="0" toLane="0" via=":3_3_0" dir="r" state="="/>
    <connection from="2to3" to="3to6" fromLane="0" toLane="0" via=":3_4_0" dir="L" state="="/>
    <connection from="2to3" to="3to5" fromLane="0" toLane="0" via=":3_5_0" dir="l" state="="/>
    <connection from="2to4" to="4to7" fromLane="0" toLane="0" via=":4_0_0" dir="L" state="="/>
    <connection from="2to4" to="4to6" fromLane="0" toLane="0" via=":4_1_0" dir="L" state="="/>
    <connection from="2to4" to="4to5" fromLane="0" toLane="0" via=":4_2_0" dir="l" state="="/>
    <connection from="2to5" to="5to7" fromLane="0" toLane="0" via=":5_6_0" dir="r" state="="/>
    <connection from="2to5" to="5to6" fromLane="0" toLane="0" via=":5_7_0" dir="R" state="="/>
    <connection from="2to5" to="5to8" fromLane="0" toLane="0" via=":5_8_0" dir="s" state="="/>
    <connection from="3to4" to="4to7" fromLane="0" toLane="0" via=":4_3_0" dir="L" state="="/>
    <connection from="3to4" to="4to6" fromLane="0" toLane="0" via=":4_4_0" dir="l" state="="/>
    <connection from="3to4" to="4to5" fromLane="0" toLane="0" via=":4_5_0" dir="t" state="="/>
    <connection from="3to5" to="5to7" fromLane="0" toLane="0" via=":5_3_0" dir="r" state="="/>
    <connection from="3to5" to="5to6" fromLane="0" toLane="0" via=":5_4_0" dir="R" state="="/>
    <connection from="3to5" to="5to8" fromLane="0" toLane="0" via=":5_5_0" dir="R" state="="/>
    <connection from="3to6" to="6to7" fromLane="0" toLane="0" via=":6_3_0" dir="r" state="="/>
    <connection from="3to6" to="6to9" fromLane="0" toLane="0" via=":6_4_0" dir="R" state="="/>
    <connection from="3to6" to="6to8" fromLane="0" toLane="0" via=":6_5_0" dir="l" state="="/>
    <connection from="4to5" to="5to7" fromLane="0" toLane="0" via=":5_0_0" dir="r" state="="/>
    <connection from="4to5" to="5to6" fromLane="0" toLane="0" via=":5_1_0" dir="R" state="="/>
    <connection from="4to5" to="5to8" fromLane="0" toLane="0" via=":5_2_0" dir="R" state="="/>
    <connection from="4to6" to="6to7" fromLane="0" toLane="0" via=":6_0_0" dir="r" state="="/>
    <connection from="4to6" to="6to9" fromLane="0" toLane="0" via=":6_1_0" dir="R" state="="/>
    <connection from="4to6" to="6to8" fromLane="0" toLane="0" via=":6_2_0" dir="s" state="="/>
    <connection from="4to7" to="7to9" fromLane="0" toLane="0" via=":7_6_0" dir="s" state="="/>
    <connection from="4to7" to="7to10" fromLane="0" toLane="0" via=":7_7_0" dir="s" state="="/>
    <connection from="4to7" to="7to8" fromLane="0" toLane="0" via=":7_8_0" dir="l" state="="/>
    <connection from="5to6" to="6to7" fromLane="0" toLane="0" via=":6_6_0" dir="r" state="="/>
    <connection from="5to6" to="6to9" fromLane="0" toLane="0" via=":6_7_0" dir="s" state="="/>
    <connection from="5to6" to="6to8" fromLane="0" toLane="0" via=":6_8_0" dir="l" state="="/>
    <connection from="5to7" to="7to9" fromLane="0" toLane="0" via=":7_0_0" dir="L" state="="/>
    <connection from="5to7" to="7to10" fromLane="0" toLane="0" via=":7_1_0" dir="L" state="="/>
    <connection from="5to7" to="7to8" fromLane="0" toLane="0" via=":7_2_0" dir="l" state="="/>
    <connection from="5to8" to="8to9" fromLane="0" toLane="0" via=":8_4_0" dir="r" state="="/>
    <connection from="5to8" to="8to10" fromLane="0" toLane="0" via=":8_5_0" dir="R" state="="/>
    <connection from="6to7" to="7to9" fromLane="0" toLane="0" via=":7_3_0" dir="L" state="="/>
    <connection from="6to7" to="7to10" fromLane="0" toLane="0" via=":7_4_0" dir="l" state="="/>
    <connection from="6to7" to="7to8" fromLane="0" toLane="0" via=":7_5_0" dir="t" state="="/>
    <connection from="6to8" to="8to9" fromLane="0" toLane="0" via=":8_2_0" dir="r" state="="/>
    <connection from="6to8" to="8to10" fromLane="0" toLane="0" via=":8_3_0" dir="R" state="="/>
    <connection from="6to9" to="9to10" fromLane="0" toLane="0" via=":9_2_0" dir="l" state="="/>
    <connection from="7to8" to="8to9" fromLane="0" toLane="0" via=":8_0_0" dir="r" state="="/>
    <connection from="7to8" to="8to10" fromLane="0" toLane="0" via=":8_1_0" dir="R" state="="/>
    <connection from="7to9" to="9to10" fromLane="0" toLane="0" via=":9_1_0" dir="l" state="="/>
    <connection from="8to9" to="9to10" fromLane="0" toLane="0" via=":9_0_0" dir="l" state="="/>

    <connection from=":2_0" to="2to4" fromLane="0" toLane="0" dir="s" state="M"/>
    <connection from=":2_1" to="2to3" fromLane="0" toLane="0" dir="s" state="M"/>
    <connection from=":2_2" to="2to5" fromLane="0" toLane="0" dir="s" state="M"/>
    <connection from=":3_0" to="3to4" fromLane="0" toLane="0" dir="s" state="M"/>
    <connection from=":3_1" to="3to6" fromLane="0" toLane="0" dir="s" state="M"/>
    <connection from=":3_2" to="3to5" fromLane="0" toLane="0" dir="s" state="M"/>
    <connection from=":3_3" to="3to4" fromLane="0" toLane="0" dir="s" state="M"/>
    <connection from=":3_4" to="3to6" fromLane="0" toLane="0" dir="s" state="M"/>
    <connection from=":3_5" to="3to5" fromLane="0" toLane="0" dir="s" state="M"/>
    <connection from=":4_0" to="4to7" fromLane="0" toLane="0" dir="s" state="M"/>
    <connection from=":4_1" to="4to6" fromLane="0" toLane="0" dir="s" state="M"/>
    <connection from=":4_2" to="4to5" fromLane="0" toLane="0" dir="s" state="M"/>
    <connection from=":4_3" to="4to7" fromLane="0" toLane="0" dir="s" state="M"/>
    <connection from=":4_4" to="4to6" fromLane="0" toLane="0" dir="s" state="M"/>
    <connection from=":4_5" to="4to5" fromLane="0" toLane="0" dir="s" state="M"/>
    <connection from=":4_6" to="4to7" fromLane="0" toLane="0" dir="s" state="M"/>
    <connection from=":4_7" to="4to6" fromLane="0" toLane="0" dir="s" state="M"/>
    <connection from=":4_8" to="4to5" fromLane="0" toLane="0" dir="s" state="M"/>
    <connection from=":5_0" to="5to7" fromLane="0" toLane="0" dir="s" state="M"/>
    <connection from=":5_1" to="5to6" fromLane="0" toLane="0" dir="s" state="M"/>
    <connection from=":5_2" to="5to8" fromLane="0" toLane="0" dir="s" state="M"/>
    <connection from=":5_3" to="5to7" fromLane="0" toLane="0" dir="s" state="M"/>
    <connection from=":5_4" to="5to6" fromLane="0" toLane="0" dir="s" state="M"/>
    <connection from=":5_5" to="5to8" fromLane="0" toLane="0" dir="s" state="M"/>
    <connection from=":5_6" to="5to7" fromLane="0" toLane="0" dir="s" state="M"/>
    <connection from=":5_7" to="5to6" fromLane="0" toLane="0" dir="s" state="M"/>
    <connection from=":5_8" to="5to8" fromLane="0" toLane="0" dir="s" state="M"/>
    <connection from=":6_0" to="6to7" fromLane="0" toLane="0" dir="s" state="M"/>
    <connection from=":6_1" to="6to9" fromLane="0" toLane="0" dir="s" state="M"/>
    <connection from=":6_2" to="6to8" fromLane="0" toLane="0" dir="s" state="M"/>
    <connection from=":6_3" to="6to7" fromLane="0" toLane="0" dir="s" state="M"/>
    <connection from=":6_4" to="6to9" fromLane="0" toLane="0" dir="s" state="M"/>
    <connection from=":6_5" to="6to8" fromLane="0" toLane="0" dir="s" state="M"/>